version 3
run General-0-20260506-12:11:10-2042
attr configname General
attr datetime 20260506-12:11:10
attr datetimef 20260506-121110
attr experiment General
attr inifile ble-omnetpp.ini
attr iterationvars ""
attr iterationvarsd ""
attr iterationvarsf ""
attr measurement ""
attr network simulations.BLEKriptoAgi
attr processid 2042
attr repetition 0
attr replication #0
attr resultdir results
attr runnumber 0
attr seedset 0
config image-path ../../inet4.5/images
config network simulations.BLEKriptoAgi
config sim-time-limit 100s
config *.sensorNode.app[0].sendInterval 1s
config *.sensorNode.app[0].messageLength 104B
config *.sensorNode.udp.procDelay 0.2474785ms
config *.sensorNode.numApps 1
config *.sensorNode.app[0].typename UdpBasicApp
config *.sensorNode.app[0].destAddresses "\"gateway(ipv6)\""
config *.sensorNode.app[0].destPort 5000
config *.sensorNode.app[0].startTime 1s
config *.radioMedium.typename Ieee802154ScalarRadioMedium
config *.radioMedium.backgroundNoise.power -110dBm
config *.radioMedium.mediumLimitCache.centerFrequency 2.4GHz
config *.radioMedium.mediumLimitCache.maxTransmissionDuration 1s
config **.wlan[*].radio.transmitter.power 2mW
config **.wlan[*].radio.receiver.sensitivity -85dBm
config *.gateway.numApps 1
config *.gateway.app[0].typename UdpSink
config *.gateway.app[0].localPort 5000
config **.wlan[*].typename Ieee802154NarrowbandInterface
config **.wlan[*].mac.typename Ieee802154Mac
config **.wlan[*].bitrate 1Mbps
config **.wlan[*].hasSixlowpan true
config **.wlan[*].mac.mtu 127B
config *.configurator.typename Ipv6FlatNetworkConfigurator
config *.*.networkLayer.typename Ipv6NetworkLayer
config *.*.hasIpv4 false
config *.*.hasIpv6 true

par BLEKriptoAgi.visualizer.canvasVisualizer.sceneVisualizer typename "\"inet.visualizer.canvas.scene.SceneCanvasVisualizer\""
par BLEKriptoAgi.visualizer.canvasVisualizer.sceneVisualizer visualizationTargetModule "\"^.^.^\""
par BLEKriptoAgi.visualizer.canvasVisualizer.sceneVisualizer visualizationSubjectModule "\"^.^.^\""
par BLEKriptoAgi.visualizer.canvasVisualizer.sceneVisualizer tags "\"\""
par BLEKriptoAgi.visualizer.canvasVisualizer.sceneVisualizer physicalEnvironmentModule "\"physicalEnvironment\""
par BLEKriptoAgi.visualizer.canvasVisualizer.sceneVisualizer networkNodeVisualizerModule "\"^.networkNodeVisualizer\""
par BLEKriptoAgi.visualizer.canvasVisualizer.sceneVisualizer axisLength "nan m"
attr mutable ""
attr unit m
par BLEKriptoAgi.visualizer.canvasVisualizer.sceneVisualizer animationSpeed 0
par BLEKriptoAgi.visualizer.canvasVisualizer.sceneVisualizer sceneMinX "nan m"
attr unit m
par BLEKriptoAgi.visualizer.canvasVisualizer.sceneVisualizer sceneMinY "nan m"
attr unit m
par BLEKriptoAgi.visualizer.canvasVisualizer.sceneVisualizer sceneMinZ "nan m"
attr unit m
par BLEKriptoAgi.visualizer.canvasVisualizer.sceneVisualizer sceneMaxX "nan m"
attr unit m
par BLEKriptoAgi.visualizer.canvasVisualizer.sceneVisualizer sceneMaxY "nan m"
attr unit m
par BLEKriptoAgi.visualizer.canvasVisualizer.sceneVisualizer sceneMaxZ "nan m"
attr unit m
par BLEKriptoAgi.visualizer.canvasVisualizer.sceneVisualizer zIndex 0
par BLEKriptoAgi.visualizer.canvasVisualizer.sceneVisualizer viewAngle "\"x right y down z out\""
attr mutable ""
par BLEKriptoAgi.visualizer.canvasVisualizer.sceneVisualizer viewScale "\"1 1\""
attr mutable ""
par BLEKriptoAgi.visualizer.canvasVisualizer.sceneVisualizer viewTranslation "\"0 0\""
attr mutable ""
par BLEKriptoAgi.visualizer.canvasVisualizer.sceneVisualizer descriptionFigure "\"\""
par BLEKriptoAgi.visualizer.canvasVisualizer.physicalEnvironmentVisualizer typename "\"inet.visualizer.canvas.environment.PhysicalEnvironmentCanvasVisualizer\""
par BLEKriptoAgi.visualizer.canvasVisualizer.physicalEnvironmentVisualizer visualizationTargetModule "\"^.^.^\""
par BLEKriptoAgi.visualizer.canvasVisualizer.physicalEnvironmentVisualizer visualizationSubjectModule "\"^.^.^\""
par BLEKriptoAgi.visualizer.canvasVisualizer.physicalEnvironmentVisualizer tags "\"\""
par BLEKriptoAgi.visualizer.canvasVisualizer.physicalEnvironmentVisualizer physicalEnvironmentModule "\"physicalEnvironment\""
par BLEKriptoAgi.visualizer.canvasVisualizer.physicalEnvironmentVisualizer displayObjects true
par BLEKriptoAgi.visualizer.canvasVisualizer.physicalEnvironmentVisualizer zIndex 0
par BLEKriptoAgi.visualizer.canvasVisualizer.networkNodeVisualizer typename "\"inet.visualizer.canvas.scene.NetworkNodeCanvasVisualizer\""
par BLEKriptoAgi.visualizer.canvasVisualizer.networkNodeVisualizer visualizationTargetModule "\"^.^.^\""
par BLEKriptoAgi.visualizer.canvasVisualizer.networkNodeVisualizer visualizationSubjectModule "\"^.^.^\""
par BLEKriptoAgi.visualizer.canvasVisualizer.networkNodeVisualizer tags "\"\""
par BLEKriptoAgi.visualizer.canvasVisualizer.networkNodeVisualizer nodeFilter "\"*\""
attr mutable ""
par BLEKriptoAgi.visualizer.canvasVisualizer.networkNodeVisualizer annotationSpacing 4
par BLEKriptoAgi.visualizer.canvasVisualizer.networkNodeVisualizer placementPenalty 10
par BLEKriptoAgi.visualizer.canvasVisualizer.networkNodeVisualizer zIndex 0
par BLEKriptoAgi.visualizer.canvasVisualizer.networkConnectionVisualizer typename "\"inet.visualizer.canvas.scene.NetworkConnectionCanvasVisualizer\""
par BLEKriptoAgi.visualizer.canvasVisualizer.networkConnectionVisualizer visualizationTargetModule "\"^.^.^\""
par BLEKriptoAgi.visualizer.canvasVisualizer.networkConnectionVisualizer visualizationSubjectModule "\"^.^.^\""
par BLEKriptoAgi.visualizer.canvasVisualizer.networkConnectionVisualizer tags "\"\""
par BLEKriptoAgi.visualizer.canvasVisualizer.networkConnectionVisualizer displayNetworkConnections true
par BLEKriptoAgi.visualizer.canvasVisualizer.networkConnectionVisualizer nodeFilter "\"\""
attr mutable ""
par BLEKriptoAgi.visualizer.canvasVisualizer.networkConnectionVisualizer lineColor "\"black\""
par BLEKriptoAgi.visualizer.canvasVisualizer.networkConnectionVisualizer lineStyle "\"solid\""
par BLEKriptoAgi.visualizer.canvasVisualizer.networkConnectionVisualizer lineWidth 1
par BLEKriptoAgi.visualizer.canvasVisualizer.networkConnectionVisualizer zIndex 0
par BLEKriptoAgi.visualizer.canvasVisualizer.mobilityVisualizer typename "\"inet.visualizer.canvas.mobility.MobilityCanvasVisualizer\""
par BLEKriptoAgi.visualizer.canvasVisualizer.mobilityVisualizer visualizationTargetModule "\"^.^.^\""
par BLEKriptoAgi.visualizer.canvasVisualizer.mobilityVisualizer visualizationSubjectModule "\"^.^.^\""
par BLEKriptoAgi.visualizer.canvasVisualizer.mobilityVisualizer tags "\"\""
par BLEKriptoAgi.visualizer.canvasVisualizer.mobilityVisualizer networkNodeVisualizerModule "\"^.networkNodeVisualizer\""
par BLEKriptoAgi.visualizer.canvasVisualizer.mobilityVisualizer displayMobility true
par BLEKriptoAgi.visualizer.canvasVisualizer.mobilityVisualizer animationSpeed 0
par BLEKriptoAgi.visualizer.canvasVisualizer.mobilityVisualizer moduleFilter "\"**.mobility\""
attr mutable ""
par BLEKriptoAgi.visualizer.canvasVisualizer.mobilityVisualizer displayPositions false
par BLEKriptoAgi.visualizer.canvasVisualizer.mobilityVisualizer positionCircleRadius 4
par BLEKriptoAgi.visualizer.canvasVisualizer.mobilityVisualizer positionCircleLineWidth 1
par BLEKriptoAgi.visualizer.canvasVisualizer.mobilityVisualizer positionCircleLineColor "\"dark\""
par BLEKriptoAgi.visualizer.canvasVisualizer.mobilityVisualizer positionCircleFillColor "\"dark\""
par BLEKriptoAgi.visualizer.canvasVisualizer.mobilityVisualizer displayOrientations false
par BLEKriptoAgi.visualizer.canvasVisualizer.mobilityVisualizer orientationPieRadius 32
par BLEKriptoAgi.visualizer.canvasVisualizer.mobilityVisualizer orientationPieSize 0.2
par BLEKriptoAgi.visualizer.canvasVisualizer.mobilityVisualizer orientationPieOpacity 0.25
par BLEKriptoAgi.visualizer.canvasVisualizer.mobilityVisualizer orientationLineColor "\"black\""
par BLEKriptoAgi.visualizer.canvasVisualizer.mobilityVisualizer orientationLineStyle "\"solid\""
par BLEKriptoAgi.visualizer.canvasVisualizer.mobilityVisualizer orientationLineWidth 1
par BLEKriptoAgi.visualizer.canvasVisualizer.mobilityVisualizer orientationFillColor "\"blue\""
par BLEKriptoAgi.visualizer.canvasVisualizer.mobilityVisualizer displayVelocities false
par BLEKriptoAgi.visualizer.canvasVisualizer.mobilityVisualizer velocityArrowScale 1
par BLEKriptoAgi.visualizer.canvasVisualizer.mobilityVisualizer velocityLineColor "\"black\""
par BLEKriptoAgi.visualizer.canvasVisualizer.mobilityVisualizer velocityLineStyle "\"solid\""
par BLEKriptoAgi.visualizer.canvasVisualizer.mobilityVisualizer velocityLineWidth 1
par BLEKriptoAgi.visualizer.canvasVisualizer.mobilityVisualizer displayMovementTrails false
par BLEKriptoAgi.visualizer.canvasVisualizer.mobilityVisualizer movementTrailLineColor "\"dark\""
par BLEKriptoAgi.visualizer.canvasVisualizer.mobilityVisualizer movementTrailLineStyle "\"solid\""
par BLEKriptoAgi.visualizer.canvasVisualizer.mobilityVisualizer movementTrailLineWidth 1
par BLEKriptoAgi.visualizer.canvasVisualizer.mobilityVisualizer trailLength 100
par BLEKriptoAgi.visualizer.canvasVisualizer.mobilityVisualizer zIndex 0
par BLEKriptoAgi.visualizer.canvasVisualizer.statisticVisualizer typename "\"inet.visualizer.canvas.common.StatisticCanvasVisualizer\""
par BLEKriptoAgi.visualizer.canvasVisualizer.statisticVisualizer visualizationTargetModule "\"^.^.^\""
par BLEKriptoAgi.visualizer.canvasVisualizer.statisticVisualizer visualizationSubjectModule "\"^.^.^\""
par BLEKriptoAgi.visualizer.canvasVisualizer.statisticVisualizer tags "\"\""
par BLEKriptoAgi.visualizer.canvasVisualizer.statisticVisualizer networkNodeVisualizerModule "\"^.networkNodeVisualizer\""
par BLEKriptoAgi.visualizer.canvasVisualizer.statisticVisualizer displayStatistics true
par BLEKriptoAgi.visualizer.canvasVisualizer.statisticVisualizer signalName "\"\""
par BLEKriptoAgi.visualizer.canvasVisualizer.statisticVisualizer statisticName "\"\""
par BLEKriptoAgi.visualizer.canvasVisualizer.statisticVisualizer statisticUnit "\"\""
par BLEKriptoAgi.visualizer.canvasVisualizer.statisticVisualizer statisticExpression "\"\""
par BLEKriptoAgi.visualizer.canvasVisualizer.statisticVisualizer sourceFilter "\"**\""
attr mutable ""
par BLEKriptoAgi.visualizer.canvasVisualizer.statisticVisualizer format "\"%n: %v %u\""
attr mutable ""
par BLEKriptoAgi.visualizer.canvasVisualizer.statisticVisualizer unit "\"\""
par BLEKriptoAgi.visualizer.canvasVisualizer.statisticVisualizer font "\"<default>\""
par BLEKriptoAgi.visualizer.canvasVisualizer.statisticVisualizer textColor "\"black\""
par BLEKriptoAgi.visualizer.canvasVisualizer.statisticVisualizer backgroundColor "\"white\""
par BLEKriptoAgi.visualizer.canvasVisualizer.statisticVisualizer opacity 1
par BLEKriptoAgi.visualizer.canvasVisualizer.statisticVisualizer placementHint "\"top\""
par BLEKriptoAgi.visualizer.canvasVisualizer.statisticVisualizer placementPriority 0
par BLEKriptoAgi.visualizer.canvasVisualizer.statisticVisualizer zIndex 10
par BLEKriptoAgi.visualizer.canvasVisualizer.statisticVisualizer propertyName "\"\""
par BLEKriptoAgi.visualizer.canvasVisualizer.statisticVisualizer propertyIndex "\"\""
par BLEKriptoAgi.visualizer.canvasVisualizer.infoVisualizer typename "\"inet.visualizer.canvas.common.InfoCanvasVisualizer\""
par BLEKriptoAgi.visualizer.canvasVisualizer.infoVisualizer visualizationTargetModule "\"^.^.^\""
par BLEKriptoAgi.visualizer.canvasVisualizer.infoVisualizer visualizationSubjectModule "\"^.^.^\""
par BLEKriptoAgi.visualizer.canvasVisualizer.infoVisualizer tags "\"\""
par BLEKriptoAgi.visualizer.canvasVisualizer.infoVisualizer networkNodeVisualizerModule "\"^.networkNodeVisualizer\""
par BLEKriptoAgi.visualizer.canvasVisualizer.infoVisualizer displayInfos true
par BLEKriptoAgi.visualizer.canvasVisualizer.infoVisualizer modules "\"\""
attr mutable ""
par BLEKriptoAgi.visualizer.canvasVisualizer.infoVisualizer format "\"%t\""
attr mutable ""
par BLEKriptoAgi.visualizer.canvasVisualizer.infoVisualizer font "\"<default>\""
par BLEKriptoAgi.visualizer.canvasVisualizer.infoVisualizer textColor "\"black\""
par BLEKriptoAgi.visualizer.canvasVisualizer.infoVisualizer backgroundColor "\"white\""
par BLEKriptoAgi.visualizer.canvasVisualizer.infoVisualizer opacity 1
par BLEKriptoAgi.visualizer.canvasVisualizer.infoVisualizer placementHint "\"top\""
par BLEKriptoAgi.visualizer.canvasVisualizer.infoVisualizer placementPriority 0
par BLEKriptoAgi.visualizer.canvasVisualizer.infoVisualizer zIndex 10
par BLEKriptoAgi.visualizer.canvasVisualizer.energyStorageVisualizer typename "\"inet.visualizer.canvas.power.EnergyStorageCanvasVisualizer\""
par BLEKriptoAgi.visualizer.canvasVisualizer.energyStorageVisualizer visualizationTargetModule "\"^.^.^\""
par BLEKriptoAgi.visualizer.canvasVisualizer.energyStorageVisualizer visualizationSubjectModule "\"^.^.^\""
par BLEKriptoAgi.visualizer.canvasVisualizer.energyStorageVisualizer tags "\"\""
par BLEKriptoAgi.visualizer.canvasVisualizer.energyStorageVisualizer networkNodeVisualizerModule "\"^.networkNodeVisualizer\""
par BLEKriptoAgi.visualizer.canvasVisualizer.energyStorageVisualizer displayEnergyStorages false
par BLEKriptoAgi.visualizer.canvasVisualizer.energyStorageVisualizer energyStorageFilter "\"**\""
par BLEKriptoAgi.visualizer.canvasVisualizer.energyStorageVisualizer color "\"green\""
par BLEKriptoAgi.visualizer.canvasVisualizer.energyStorageVisualizer width 8
par BLEKriptoAgi.visualizer.canvasVisualizer.energyStorageVisualizer height 24
par BLEKriptoAgi.visualizer.canvasVisualizer.energyStorageVisualizer spacing 2
par BLEKriptoAgi.visualizer.canvasVisualizer.energyStorageVisualizer placementHint "\"right\""
par BLEKriptoAgi.visualizer.canvasVisualizer.energyStorageVisualizer placementPriority 0
par BLEKriptoAgi.visualizer.canvasVisualizer.energyStorageVisualizer zIndex 10
par BLEKriptoAgi.visualizer.canvasVisualizer.mediumVisualizer typename "\"inet.visualizer.canvas.physicallayer.MediumCanvasVisualizer\""
par BLEKriptoAgi.visualizer.canvasVisualizer.mediumVisualizer visualizationTargetModule "\"^.^.^\""
par BLEKriptoAgi.visualizer.canvasVisualizer.mediumVisualizer visualizationSubjectModule "\"^.^.^\""
par BLEKriptoAgi.visualizer.canvasVisualizer.mediumVisualizer tags "\"\""
par BLEKriptoAgi.visualizer.canvasVisualizer.mediumVisualizer mediumModule "\"radioMedium\""
par BLEKriptoAgi.visualizer.canvasVisualizer.mediumVisualizer networkNodeVisualizerModule "\"^.networkNodeVisualizer\""
par BLEKriptoAgi.visualizer.canvasVisualizer.mediumVisualizer nodeFilter "\"*\""
attr mutable ""
par BLEKriptoAgi.visualizer.canvasVisualizer.mediumVisualizer interfaceFilter "\"*\""
attr mutable ""
par BLEKriptoAgi.visualizer.canvasVisualizer.mediumVisualizer packetFilter "(omnetpp::cValueHolder)holder: \"*\""
attr mutable ""
par BLEKriptoAgi.visualizer.canvasVisualizer.mediumVisualizer displaySignals false
par BLEKriptoAgi.visualizer.canvasVisualizer.mediumVisualizer signalColor "\"dark\""
par BLEKriptoAgi.visualizer.canvasVisualizer.mediumVisualizer signalPropagationAnimationSpeed "nan "
attr mutable ""
par BLEKriptoAgi.visualizer.canvasVisualizer.mediumVisualizer signalPropagationAnimationTime 1s
attr unit s
par BLEKriptoAgi.visualizer.canvasVisualizer.mediumVisualizer signalPropagationAdditionalTime 0s
attr unit s
par BLEKriptoAgi.visualizer.canvasVisualizer.mediumVisualizer signalTransmissionAnimationSpeed "nan "
attr mutable ""
par BLEKriptoAgi.visualizer.canvasVisualizer.mediumVisualizer signalTransmissionAnimationTime 1s
attr unit s
par BLEKriptoAgi.visualizer.canvasVisualizer.mediumVisualizer signalAnimationSpeedChangeTimeMode "\"realTime\""
attr enum realTime,animationTime,simulationTime
par BLEKriptoAgi.visualizer.canvasVisualizer.mediumVisualizer signalAnimationSpeedChangeTime 1s
attr unit s
par BLEKriptoAgi.visualizer.canvasVisualizer.mediumVisualizer displaySignalDepartures false
par BLEKriptoAgi.visualizer.canvasVisualizer.mediumVisualizer signalDepartureImage "\"misc/signal_departure.png\""
par BLEKriptoAgi.visualizer.canvasVisualizer.mediumVisualizer signalDeparturePlacementHint "\"topCenter\""
par BLEKriptoAgi.visualizer.canvasVisualizer.mediumVisualizer signalDeparturePlacementPriority 1
par BLEKriptoAgi.visualizer.canvasVisualizer.mediumVisualizer displaySignalArrivals false
par BLEKriptoAgi.visualizer.canvasVisualizer.mediumVisualizer signalArrivalImage "\"misc/signal_arrival.png\""
par BLEKriptoAgi.visualizer.canvasVisualizer.mediumVisualizer signalArrivalPlacementHint "\"topCenter\""
par BLEKriptoAgi.visualizer.canvasVisualizer.mediumVisualizer signalArrivalPlacementPriority -1
par BLEKriptoAgi.visualizer.canvasVisualizer.mediumVisualizer displayCommunicationRanges false
par BLEKriptoAgi.visualizer.canvasVisualizer.mediumVisualizer communicationRangeLineColor "\"blue\""
par BLEKriptoAgi.visualizer.canvasVisualizer.mediumVisualizer communicationRangeLineStyle "\"solid\""
par BLEKriptoAgi.visualizer.canvasVisualizer.mediumVisualizer communicationRangeLineWidth 1
par BLEKriptoAgi.visualizer.canvasVisualizer.mediumVisualizer displayInterferenceRanges false
par BLEKriptoAgi.visualizer.canvasVisualizer.mediumVisualizer interferenceRangeLineColor "\"gray\""
par BLEKriptoAgi.visualizer.canvasVisualizer.mediumVisualizer interferenceRangeLineStyle "\"solid\""
par BLEKriptoAgi.visualizer.canvasVisualizer.mediumVisualizer interferenceRangeLineWidth 1
par BLEKriptoAgi.visualizer.canvasVisualizer.mediumVisualizer autoPowerAxis true
par BLEKriptoAgi.visualizer.canvasVisualizer.mediumVisualizer signalMinPower "inf dBmW"
attr unit dBmW
par BLEKriptoAgi.visualizer.canvasVisualizer.mediumVisualizer signalMaxPower 0dBmW
attr unit dBmW
par BLEKriptoAgi.visualizer.canvasVisualizer.mediumVisualizer signalMinPowerDensity "inf dBmWpMHz"
attr unit dBmWpMHz
par BLEKriptoAgi.visualizer.canvasVisualizer.mediumVisualizer signalMaxPowerDensity "-inf dBmWpMHz"
attr unit dBmWpMHz
par BLEKriptoAgi.visualizer.canvasVisualizer.mediumVisualizer autoTimeAxis true
par BLEKriptoAgi.visualizer.canvasVisualizer.mediumVisualizer signalMinTime 0s
attr unit s
par BLEKriptoAgi.visualizer.canvasVisualizer.mediumVisualizer signalMaxTime 0s
attr unit s
par BLEKriptoAgi.visualizer.canvasVisualizer.mediumVisualizer autoFrequencyAxis true
par BLEKriptoAgi.visualizer.canvasVisualizer.mediumVisualizer signalMinFrequency "inf Hz"
attr unit Hz
par BLEKriptoAgi.visualizer.canvasVisualizer.mediumVisualizer signalMaxFrequency "-inf Hz"
attr unit Hz
par BLEKriptoAgi.visualizer.canvasVisualizer.mediumVisualizer displayMainPowerDensityMap false
par BLEKriptoAgi.visualizer.canvasVisualizer.mediumVisualizer mainPowerDensityMapPixmapDensity 1
par BLEKriptoAgi.visualizer.canvasVisualizer.mediumVisualizer mainPowerDensityMapMinX 0
par BLEKriptoAgi.visualizer.canvasVisualizer.mediumVisualizer mainPowerDensityMapMaxX "nan "
par BLEKriptoAgi.visualizer.canvasVisualizer.mediumVisualizer mainPowerDensityMapMinY 0
par BLEKriptoAgi.visualizer.canvasVisualizer.mediumVisualizer mainPowerDensityMapMaxY "nan "
par BLEKriptoAgi.visualizer.canvasVisualizer.mediumVisualizer mainPowerDensityMapZ 0
par BLEKriptoAgi.visualizer.canvasVisualizer.mediumVisualizer mainPowerDensityMapFigureXTickCount 3
par BLEKriptoAgi.visualizer.canvasVisualizer.mediumVisualizer mainPowerDensityMapFigureYTickCount 3
par BLEKriptoAgi.visualizer.canvasVisualizer.mediumVisualizer displayPowerDensityMaps false
par BLEKriptoAgi.visualizer.canvasVisualizer.mediumVisualizer powerDensityMapMode "\"auto\""
attr enum total,signal,auto
par BLEKriptoAgi.visualizer.canvasVisualizer.mediumVisualizer powerDensityMapPixelMode "\"mean\""
attr enum sample,partition,mean
par BLEKriptoAgi.visualizer.canvasVisualizer.mediumVisualizer powerDensityMapApproximationSize 10
par BLEKriptoAgi.visualizer.canvasVisualizer.mediumVisualizer powerDensityMapCenterFrequency "nan Hz"
attr mutable ""
attr unit Hz
par BLEKriptoAgi.visualizer.canvasVisualizer.mediumVisualizer powerDensityMapBandwidth 0Hz
attr mutable ""
attr unit Hz
par BLEKriptoAgi.visualizer.canvasVisualizer.mediumVisualizer powerDensityMapFigureWidth 200
par BLEKriptoAgi.visualizer.canvasVisualizer.mediumVisualizer powerDensityMapFigureHeight 120
par BLEKriptoAgi.visualizer.canvasVisualizer.mediumVisualizer powerDensityMapPixmapWidth 200
par BLEKriptoAgi.visualizer.canvasVisualizer.mediumVisualizer powerDensityMapPixmapHeight 120
par BLEKriptoAgi.visualizer.canvasVisualizer.mediumVisualizer powerDensityMapZ 0
par BLEKriptoAgi.visualizer.canvasVisualizer.mediumVisualizer powerDensityMapFigureXTickCount 3
par BLEKriptoAgi.visualizer.canvasVisualizer.mediumVisualizer powerDensityMapFigureYTickCount 3
par BLEKriptoAgi.visualizer.canvasVisualizer.mediumVisualizer displaySpectrums false
par BLEKriptoAgi.visualizer.canvasVisualizer.mediumVisualizer spectrumMode "\"auto\""
attr enum total,signal,auto
par BLEKriptoAgi.visualizer.canvasVisualizer.mediumVisualizer spectrumFigureWidth 200
par BLEKriptoAgi.visualizer.canvasVisualizer.mediumVisualizer spectrumFigureHeight 120
par BLEKriptoAgi.visualizer.canvasVisualizer.mediumVisualizer spectrumFigureXTickCount 3
par BLEKriptoAgi.visualizer.canvasVisualizer.mediumVisualizer spectrumFigureYTickCount 5
par BLEKriptoAgi.visualizer.canvasVisualizer.mediumVisualizer spectrumFigureInterpolationSize 5
par BLEKriptoAgi.visualizer.canvasVisualizer.mediumVisualizer spectrumPlacementHint "\"bottomCenter\""
par BLEKriptoAgi.visualizer.canvasVisualizer.mediumVisualizer spectrumPlacementPriority -1
par BLEKriptoAgi.visualizer.canvasVisualizer.mediumVisualizer displaySpectrograms false
par BLEKriptoAgi.visualizer.canvasVisualizer.mediumVisualizer spectrogramMode "\"auto\""
attr enum total,signal,auto
par BLEKriptoAgi.visualizer.canvasVisualizer.mediumVisualizer spectrogramPixelMode "\"mean\""
attr enum sample,partition,mean
par BLEKriptoAgi.visualizer.canvasVisualizer.mediumVisualizer spectrogramFigureWidth 200
par BLEKriptoAgi.visualizer.canvasVisualizer.mediumVisualizer spectrogramFigureHeight 120
par BLEKriptoAgi.visualizer.canvasVisualizer.mediumVisualizer spectrogramPixmapWidth 200
par BLEKriptoAgi.visualizer.canvasVisualizer.mediumVisualizer spectrogramPixmapHeight 120
par BLEKriptoAgi.visualizer.canvasVisualizer.mediumVisualizer spectrogramFigureXTickCount 3
par BLEKriptoAgi.visualizer.canvasVisualizer.mediumVisualizer spectrogramFigureYTickCount 5
par BLEKriptoAgi.visualizer.canvasVisualizer.mediumVisualizer spectrogramPlacementHint "\"bottomCenter\""
par BLEKriptoAgi.visualizer.canvasVisualizer.mediumVisualizer spectrogramPlacementPriority -1
par BLEKriptoAgi.visualizer.canvasVisualizer.mediumVisualizer zIndex 0
par BLEKriptoAgi.visualizer.canvasVisualizer.mediumVisualizer signalShape "\"ring\""
attr enum ring,sphere
par BLEKriptoAgi.visualizer.canvasVisualizer.mediumVisualizer signalOpacity 0.5
par BLEKriptoAgi.visualizer.canvasVisualizer.mediumVisualizer signalRingCount 20
par BLEKriptoAgi.visualizer.canvasVisualizer.mediumVisualizer signalRingSize 50m
attr unit m
par BLEKriptoAgi.visualizer.canvasVisualizer.mediumVisualizer signalFadingDistance 50m
attr unit m
par BLEKriptoAgi.visualizer.canvasVisualizer.mediumVisualizer signalFadingFactor 1.2
par BLEKriptoAgi.visualizer.canvasVisualizer.mediumVisualizer signalWaveCount 20
par BLEKriptoAgi.visualizer.canvasVisualizer.mediumVisualizer signalWaveLength 50m
attr unit m
par BLEKriptoAgi.visualizer.canvasVisualizer.mediumVisualizer signalWaveWidth 10m
attr unit m
par BLEKriptoAgi.visualizer.canvasVisualizer.mediumVisualizer signalWaveFadingAnimationSpeedFactor 1
par BLEKriptoAgi.visualizer.canvasVisualizer.mediumVisualizer displayCommunicationHeat false
par BLEKriptoAgi.visualizer.canvasVisualizer.obstacleLossVisualizer typename "\"inet.visualizer.canvas.physicallayer.TracingObstacleLossCanvasVisualizer\""
par BLEKriptoAgi.visualizer.canvasVisualizer.obstacleLossVisualizer visualizationTargetModule "\"^.^.^\""
par BLEKriptoAgi.visualizer.canvasVisualizer.obstacleLossVisualizer visualizationSubjectModule "\"^.^.^\""
par BLEKriptoAgi.visualizer.canvasVisualizer.obstacleLossVisualizer tags "\"\""
par BLEKriptoAgi.visualizer.canvasVisualizer.obstacleLossVisualizer displayIntersections false
par BLEKriptoAgi.visualizer.canvasVisualizer.obstacleLossVisualizer intersectionLineColor "\"red\""
par BLEKriptoAgi.visualizer.canvasVisualizer.obstacleLossVisualizer intersectionLineStyle "\"solid\""
par BLEKriptoAgi.visualizer.canvasVisualizer.obstacleLossVisualizer intersectionLineWidth 1
par BLEKriptoAgi.visualizer.canvasVisualizer.obstacleLossVisualizer displayFaceNormalVectors false
par BLEKriptoAgi.visualizer.canvasVisualizer.obstacleLossVisualizer faceNormalLineColor "\"grey\""
par BLEKriptoAgi.visualizer.canvasVisualizer.obstacleLossVisualizer faceNormalLineStyle "\"solid\""
par BLEKriptoAgi.visualizer.canvasVisualizer.obstacleLossVisualizer faceNormalLineWidth 1
par BLEKriptoAgi.visualizer.canvasVisualizer.obstacleLossVisualizer fadeOutMode "\"realTime\""
attr enum realTime,animationTime,simulationTime
par BLEKriptoAgi.visualizer.canvasVisualizer.obstacleLossVisualizer fadeOutTime 1s
attr unit s
par BLEKriptoAgi.visualizer.canvasVisualizer.obstacleLossVisualizer fadeOutAnimationSpeed 0
par BLEKriptoAgi.visualizer.canvasVisualizer.obstacleLossVisualizer zIndex 0
par BLEKriptoAgi.visualizer.canvasVisualizer.packetDropVisualizer typename "\"inet.visualizer.canvas.common.PacketDropCanvasVisualizer\""
par BLEKriptoAgi.visualizer.canvasVisualizer.packetDropVisualizer visualizationTargetModule "\"^.^.^\""
par BLEKriptoAgi.visualizer.canvasVisualizer.packetDropVisualizer visualizationSubjectModule "\"^.^.^\""
par BLEKriptoAgi.visualizer.canvasVisualizer.packetDropVisualizer tags "\"\""
par BLEKriptoAgi.visualizer.canvasVisualizer.packetDropVisualizer displayPacketDrops false
par BLEKriptoAgi.visualizer.canvasVisualizer.packetDropVisualizer nodeFilter "\"*\""
attr mutable ""
par BLEKriptoAgi.visualizer.canvasVisualizer.packetDropVisualizer interfaceFilter "\"*\""
attr mutable ""
par BLEKriptoAgi.visualizer.canvasVisualizer.packetDropVisualizer packetFilter "(omnetpp::cValueHolder)holder: \"*\""
attr mutable ""
par BLEKriptoAgi.visualizer.canvasVisualizer.packetDropVisualizer detailsFilter "\"*\""
attr mutable ""
par BLEKriptoAgi.visualizer.canvasVisualizer.packetDropVisualizer icon "\"msg/packet_s\""
par BLEKriptoAgi.visualizer.canvasVisualizer.packetDropVisualizer iconTintAmount 1
par BLEKriptoAgi.visualizer.canvasVisualizer.packetDropVisualizer iconTintColor "\"dark\""
par BLEKriptoAgi.visualizer.canvasVisualizer.packetDropVisualizer labelFormat "\"%n\""
attr mutable ""
par BLEKriptoAgi.visualizer.canvasVisualizer.packetDropVisualizer labelFont "\"<default>\""
par BLEKriptoAgi.visualizer.canvasVisualizer.packetDropVisualizer labelColor "\"black\""
par BLEKriptoAgi.visualizer.canvasVisualizer.packetDropVisualizer fadeOutMode "\"realTime\""
attr enum realTime,animationTime,simulationTime
par BLEKriptoAgi.visualizer.canvasVisualizer.packetDropVisualizer fadeOutTime 1s
attr unit s
par BLEKriptoAgi.visualizer.canvasVisualizer.packetDropVisualizer fadeOutAnimationSpeed 0
par BLEKriptoAgi.visualizer.canvasVisualizer.packetDropVisualizer zIndex 10
par BLEKriptoAgi.visualizer.canvasVisualizer.packetDropVisualizer dx 32
par BLEKriptoAgi.visualizer.canvasVisualizer.packetDropVisualizer dy 64
par BLEKriptoAgi.visualizer.canvasVisualizer.packetFlowVisualizer typename "\"inet.visualizer.canvas.flow.PacketFlowCanvasVisualizer\""
par BLEKriptoAgi.visualizer.canvasVisualizer.packetFlowVisualizer visualizationTargetModule "\"^.^.^\""
par BLEKriptoAgi.visualizer.canvasVisualizer.packetFlowVisualizer visualizationSubjectModule "\"^.^.^\""
par BLEKriptoAgi.visualizer.canvasVisualizer.packetFlowVisualizer tags "\"\""
par BLEKriptoAgi.visualizer.canvasVisualizer.packetFlowVisualizer displayRoutes false
par BLEKriptoAgi.visualizer.canvasVisualizer.packetFlowVisualizer startPathSignal "\"packetFlowStarted\""
par BLEKriptoAgi.visualizer.canvasVisualizer.packetFlowVisualizer extendPathSignal "\"packetReceivedFromLower\""
par BLEKriptoAgi.visualizer.canvasVisualizer.packetFlowVisualizer endPathSignal "\"packetFlowEnded\""
par BLEKriptoAgi.visualizer.canvasVisualizer.packetFlowVisualizer nodeFilter "\"*\""
attr mutable ""
par BLEKriptoAgi.visualizer.canvasVisualizer.packetFlowVisualizer packetFilter "(omnetpp::cValueHolder)holder: \"*\""
attr mutable ""
par BLEKriptoAgi.visualizer.canvasVisualizer.packetFlowVisualizer lineColor "\"dark\""
par BLEKriptoAgi.visualizer.canvasVisualizer.packetFlowVisualizer lineStyle "\"dashed\""
par BLEKriptoAgi.visualizer.canvasVisualizer.packetFlowVisualizer lineWidth 3
par BLEKriptoAgi.visualizer.canvasVisualizer.packetFlowVisualizer lineSmooth false
par BLEKriptoAgi.visualizer.canvasVisualizer.packetFlowVisualizer lineShift 16
par BLEKriptoAgi.visualizer.canvasVisualizer.packetFlowVisualizer lineShiftMode "\"normal\""
par BLEKriptoAgi.visualizer.canvasVisualizer.packetFlowVisualizer lineContactSpacing 3
par BLEKriptoAgi.visualizer.canvasVisualizer.packetFlowVisualizer lineContactMode "\"rectangular\""
attr enum circular,rectangular
par BLEKriptoAgi.visualizer.canvasVisualizer.packetFlowVisualizer labelFormat "\"%L %p pk (%l)\""
par BLEKriptoAgi.visualizer.canvasVisualizer.packetFlowVisualizer labelFont "\"<default>, 8px\""
par BLEKriptoAgi.visualizer.canvasVisualizer.packetFlowVisualizer labelColor "\"\""
par BLEKriptoAgi.visualizer.canvasVisualizer.packetFlowVisualizer fadeOutMode "\"realTime\""
attr enum realTime,animationTime,simulationTime
par BLEKriptoAgi.visualizer.canvasVisualizer.packetFlowVisualizer fadeOutTime 0s
attr unit s
par BLEKriptoAgi.visualizer.canvasVisualizer.packetFlowVisualizer fadeOutAnimationSpeed 0
par BLEKriptoAgi.visualizer.canvasVisualizer.packetFlowVisualizer zIndex 4
par BLEKriptoAgi.visualizer.canvasVisualizer.queueVisualizer typename "\"inet.visualizer.canvas.common.QueueCanvasVisualizer\""
par BLEKriptoAgi.visualizer.canvasVisualizer.queueVisualizer visualizationTargetModule "\"^.^.^\""
par BLEKriptoAgi.visualizer.canvasVisualizer.queueVisualizer visualizationSubjectModule "\"^.^.^\""
par BLEKriptoAgi.visualizer.canvasVisualizer.queueVisualizer tags "\"\""
par BLEKriptoAgi.visualizer.canvasVisualizer.queueVisualizer networkNodeVisualizerModule "\"^.networkNodeVisualizer\""
par BLEKriptoAgi.visualizer.canvasVisualizer.queueVisualizer displayQueues false
par BLEKriptoAgi.visualizer.canvasVisualizer.queueVisualizer queueFilter "\"**\""
par BLEKriptoAgi.visualizer.canvasVisualizer.queueVisualizer color "\"blue\""
par BLEKriptoAgi.visualizer.canvasVisualizer.queueVisualizer width 8
par BLEKriptoAgi.visualizer.canvasVisualizer.queueVisualizer height 24
par BLEKriptoAgi.visualizer.canvasVisualizer.queueVisualizer spacing 2
par BLEKriptoAgi.visualizer.canvasVisualizer.queueVisualizer placementHint "\"right\""
par BLEKriptoAgi.visualizer.canvasVisualizer.queueVisualizer placementPriority 0
par BLEKriptoAgi.visualizer.canvasVisualizer.queueVisualizer zIndex 10
par BLEKriptoAgi.visualizer.canvasVisualizer.gateScheduleVisualizer typename "\"inet.visualizer.canvas.common.GateScheduleCanvasVisualizer\""
par BLEKriptoAgi.visualizer.canvasVisualizer.gateScheduleVisualizer visualizationTargetModule "\"^.^.^\""
par BLEKriptoAgi.visualizer.canvasVisualizer.gateScheduleVisualizer visualizationSubjectModule "\"^.^.^\""
par BLEKriptoAgi.visualizer.canvasVisualizer.gateScheduleVisualizer tags "\"\""
par BLEKriptoAgi.visualizer.canvasVisualizer.gateScheduleVisualizer networkNodeVisualizerModule "\"^.networkNodeVisualizer\""
par BLEKriptoAgi.visualizer.canvasVisualizer.gateScheduleVisualizer displayGateSchedules false
par BLEKriptoAgi.visualizer.canvasVisualizer.gateScheduleVisualizer labelFormat "\"%i %D\""
par BLEKriptoAgi.visualizer.canvasVisualizer.gateScheduleVisualizer gateFilter "\"**\""
par BLEKriptoAgi.visualizer.canvasVisualizer.gateScheduleVisualizer width 100
par BLEKriptoAgi.visualizer.canvasVisualizer.gateScheduleVisualizer height 8
par BLEKriptoAgi.visualizer.canvasVisualizer.gateScheduleVisualizer spacing 2
par BLEKriptoAgi.visualizer.canvasVisualizer.gateScheduleVisualizer placementHint "\"right\""
par BLEKriptoAgi.visualizer.canvasVisualizer.gateScheduleVisualizer placementPriority 0
par BLEKriptoAgi.visualizer.canvasVisualizer.gateScheduleVisualizer displayDuration 0s
attr mutable ""
attr unit s
par BLEKriptoAgi.visualizer.canvasVisualizer.gateScheduleVisualizer currentTimePosition 50
par BLEKriptoAgi.visualizer.canvasVisualizer.gateScheduleVisualizer zIndex 10
par BLEKriptoAgi.visualizer.canvasVisualizer.radioVisualizer typename "\"inet.visualizer.canvas.physicallayer.RadioCanvasVisualizer\""
par BLEKriptoAgi.visualizer.canvasVisualizer.radioVisualizer visualizationTargetModule "\"^.^.^\""
par BLEKriptoAgi.visualizer.canvasVisualizer.radioVisualizer visualizationSubjectModule "\"^.^.^\""
par BLEKriptoAgi.visualizer.canvasVisualizer.radioVisualizer tags "\"\""
par BLEKriptoAgi.visualizer.canvasVisualizer.radioVisualizer networkNodeVisualizerModule "\"^.networkNodeVisualizer\""
par BLEKriptoAgi.visualizer.canvasVisualizer.radioVisualizer displayRadios false
par BLEKriptoAgi.visualizer.canvasVisualizer.radioVisualizer displayRadioMode true
par BLEKriptoAgi.visualizer.canvasVisualizer.radioVisualizer displayReceptionState true
par BLEKriptoAgi.visualizer.canvasVisualizer.radioVisualizer displayTransmissionState true
par BLEKriptoAgi.visualizer.canvasVisualizer.radioVisualizer displayAntennaLobes false
par BLEKriptoAgi.visualizer.canvasVisualizer.radioVisualizer radioFilter "\"**\""
attr mutable ""
par BLEKriptoAgi.visualizer.canvasVisualizer.radioVisualizer radioModeImages "\"block/process_vs block/timer_vs block/wrx_vs block/wtx_vs block/wrxtx_vs block/cogwheel_vs\""
par BLEKriptoAgi.visualizer.canvasVisualizer.radioVisualizer receptionStateImages "\"- - misc/receiving misc/receiving\""
par BLEKriptoAgi.visualizer.canvasVisualizer.radioVisualizer transmissionStateImages "\"- - misc/transmitting\""
par BLEKriptoAgi.visualizer.canvasVisualizer.radioVisualizer width 16
par BLEKriptoAgi.visualizer.canvasVisualizer.radioVisualizer height 16
par BLEKriptoAgi.visualizer.canvasVisualizer.radioVisualizer placementHint "\"bottomRight\""
par BLEKriptoAgi.visualizer.canvasVisualizer.radioVisualizer placementPriority 0
par BLEKriptoAgi.visualizer.canvasVisualizer.radioVisualizer antennaLobeNormalize false
par BLEKriptoAgi.visualizer.canvasVisualizer.radioVisualizer antennaLobeRelativeLabels false
par BLEKriptoAgi.visualizer.canvasVisualizer.radioVisualizer antennaLobePlaneGlobal true
par BLEKriptoAgi.visualizer.canvasVisualizer.radioVisualizer antennaLobePlane "\"view\""
attr enum view,xy,xz,yz
par BLEKriptoAgi.visualizer.canvasVisualizer.radioVisualizer antennaLobeMode "\"logarithmic\""
attr enum logarithmic,linear
par BLEKriptoAgi.visualizer.canvasVisualizer.radioVisualizer antennaLobeLogarithmicBase 10
par BLEKriptoAgi.visualizer.canvasVisualizer.radioVisualizer antennaLobeLogarithmicScale 100
par BLEKriptoAgi.visualizer.canvasVisualizer.radioVisualizer antennaLobeRadius 100
par BLEKriptoAgi.visualizer.canvasVisualizer.radioVisualizer antennaLobeStep 10deg
attr unit deg
par BLEKriptoAgi.visualizer.canvasVisualizer.radioVisualizer antennaLobeOpacity 0.25
par BLEKriptoAgi.visualizer.canvasVisualizer.radioVisualizer antennaLobeLineSmooth true
par BLEKriptoAgi.visualizer.canvasVisualizer.radioVisualizer antennaLobeLineColor "\"black\""
par BLEKriptoAgi.visualizer.canvasVisualizer.radioVisualizer antennaLobeLineStyle "\"solid\""
par BLEKriptoAgi.visualizer.canvasVisualizer.radioVisualizer antennaLobeLineWidth 1
par BLEKriptoAgi.visualizer.canvasVisualizer.radioVisualizer antennaLobeFillColor "\"white\""
par BLEKriptoAgi.visualizer.canvasVisualizer.radioVisualizer zIndex 10
par BLEKriptoAgi.visualizer.canvasVisualizer.physicalLinkVisualizer typename "\"inet.visualizer.canvas.physicallayer.PhysicalLinkCanvasVisualizer\""
par BLEKriptoAgi.visualizer.canvasVisualizer.physicalLinkVisualizer visualizationTargetModule "\"^.^.^\""
par BLEKriptoAgi.visualizer.canvasVisualizer.physicalLinkVisualizer visualizationSubjectModule "\"^.^.^\""
par BLEKriptoAgi.visualizer.canvasVisualizer.physicalLinkVisualizer tags "\"\""
par BLEKriptoAgi.visualizer.canvasVisualizer.physicalLinkVisualizer displayLinks false
par BLEKriptoAgi.visualizer.canvasVisualizer.physicalLinkVisualizer activityLevel "\"service\""
attr enum service,peer,protocol
par BLEKriptoAgi.visualizer.canvasVisualizer.physicalLinkVisualizer nodeFilter "\"*\""
attr mutable ""
par BLEKriptoAgi.visualizer.canvasVisualizer.physicalLinkVisualizer interfaceFilter "\"*\""
attr mutable ""
par BLEKriptoAgi.visualizer.canvasVisualizer.physicalLinkVisualizer packetFilter "(omnetpp::cValueHolder)holder: \"*\""
attr mutable ""
par BLEKriptoAgi.visualizer.canvasVisualizer.physicalLinkVisualizer lineColor "\"olive\""
par BLEKriptoAgi.visualizer.canvasVisualizer.physicalLinkVisualizer lineStyle "\"dotted\""
par BLEKriptoAgi.visualizer.canvasVisualizer.physicalLinkVisualizer lineWidth 3
par BLEKriptoAgi.visualizer.canvasVisualizer.physicalLinkVisualizer lineShift 16
par BLEKriptoAgi.visualizer.canvasVisualizer.physicalLinkVisualizer lineShiftMode "\"normal\""
par BLEKriptoAgi.visualizer.canvasVisualizer.physicalLinkVisualizer lineContactSpacing 3
par BLEKriptoAgi.visualizer.canvasVisualizer.physicalLinkVisualizer lineContactMode "\"rectangular\""
attr enum circular,rectangular
par BLEKriptoAgi.visualizer.canvasVisualizer.physicalLinkVisualizer labelFormat "\"%n\""
par BLEKriptoAgi.visualizer.canvasVisualizer.physicalLinkVisualizer labelFont "\"<default>, 8px\""
par BLEKriptoAgi.visualizer.canvasVisualizer.physicalLinkVisualizer labelColor "\"olive\""
par BLEKriptoAgi.visualizer.canvasVisualizer.physicalLinkVisualizer fadeOutMode "\"realTime\""
attr enum realTime,animationTime,simulationTime
par BLEKriptoAgi.visualizer.canvasVisualizer.physicalLinkVisualizer fadeOutTime 1s
attr unit s
par BLEKriptoAgi.visualizer.canvasVisualizer.physicalLinkVisualizer fadeOutAnimationSpeed 0
par BLEKriptoAgi.visualizer.canvasVisualizer.physicalLinkVisualizer holdAnimationTime 0s
attr unit s
par BLEKriptoAgi.visualizer.canvasVisualizer.physicalLinkVisualizer zIndex 1
par BLEKriptoAgi.visualizer.canvasVisualizer.interfaceTableVisualizer typename "\"inet.visualizer.canvas.linklayer.InterfaceTableCanvasVisualizer\""
par BLEKriptoAgi.visualizer.canvasVisualizer.interfaceTableVisualizer visualizationTargetModule "\"^.^.^\""
par BLEKriptoAgi.visualizer.canvasVisualizer.interfaceTableVisualizer visualizationSubjectModule "\"^.^.^\""
par BLEKriptoAgi.visualizer.canvasVisualizer.interfaceTableVisualizer tags "\"\""
par BLEKriptoAgi.visualizer.canvasVisualizer.interfaceTableVisualizer networkNodeVisualizerModule "\"^.networkNodeVisualizer\""
par BLEKriptoAgi.visualizer.canvasVisualizer.interfaceTableVisualizer displayInterfaceTables false
par BLEKriptoAgi.visualizer.canvasVisualizer.interfaceTableVisualizer displayWiredInterfacesAtConnections true
par BLEKriptoAgi.visualizer.canvasVisualizer.interfaceTableVisualizer displayBackground false
par BLEKriptoAgi.visualizer.canvasVisualizer.interfaceTableVisualizer nodeFilter "\"*\""
attr mutable ""
par BLEKriptoAgi.visualizer.canvasVisualizer.interfaceTableVisualizer interfaceFilter "\"not(lo*)\""
attr mutable ""
par BLEKriptoAgi.visualizer.canvasVisualizer.interfaceTableVisualizer format "\"%N %\\\\%a%/%l\""
attr mutable ""
par BLEKriptoAgi.visualizer.canvasVisualizer.interfaceTableVisualizer placementHint "\"top\""
par BLEKriptoAgi.visualizer.canvasVisualizer.interfaceTableVisualizer placementPriority 0
par BLEKriptoAgi.visualizer.canvasVisualizer.interfaceTableVisualizer font "\"<default>\""
par BLEKriptoAgi.visualizer.canvasVisualizer.interfaceTableVisualizer textColor "\"#005030\""
par BLEKriptoAgi.visualizer.canvasVisualizer.interfaceTableVisualizer backgroundColor "\"white\""
par BLEKriptoAgi.visualizer.canvasVisualizer.interfaceTableVisualizer opacity 1
par BLEKriptoAgi.visualizer.canvasVisualizer.interfaceTableVisualizer zIndex 10
par BLEKriptoAgi.visualizer.canvasVisualizer.dataLinkVisualizer typename "\"inet.visualizer.canvas.linklayer.DataLinkCanvasVisualizer\""
par BLEKriptoAgi.visualizer.canvasVisualizer.dataLinkVisualizer visualizationTargetModule "\"^.^.^\""
par BLEKriptoAgi.visualizer.canvasVisualizer.dataLinkVisualizer visualizationSubjectModule "\"^.^.^\""
par BLEKriptoAgi.visualizer.canvasVisualizer.dataLinkVisualizer tags "\"\""
par BLEKriptoAgi.visualizer.canvasVisualizer.dataLinkVisualizer displayLinks false
par BLEKriptoAgi.visualizer.canvasVisualizer.dataLinkVisualizer activityLevel "\"service\""
attr enum service,peer,protocol
par BLEKriptoAgi.visualizer.canvasVisualizer.dataLinkVisualizer nodeFilter "\"*\""
attr mutable ""
par BLEKriptoAgi.visualizer.canvasVisualizer.dataLinkVisualizer interfaceFilter "\"*\""
attr mutable ""
par BLEKriptoAgi.visualizer.canvasVisualizer.dataLinkVisualizer packetFilter "(omnetpp::cValueHolder)holder: \"*\""
attr mutable ""
par BLEKriptoAgi.visualizer.canvasVisualizer.dataLinkVisualizer lineColor "\"darkcyan\""
par BLEKriptoAgi.visualizer.canvasVisualizer.dataLinkVisualizer lineStyle "\"solid\""
par BLEKriptoAgi.visualizer.canvasVisualizer.dataLinkVisualizer lineWidth 3
par BLEKriptoAgi.visualizer.canvasVisualizer.dataLinkVisualizer lineShift 16
par BLEKriptoAgi.visualizer.canvasVisualizer.dataLinkVisualizer lineShiftMode "\"normal\""
par BLEKriptoAgi.visualizer.canvasVisualizer.dataLinkVisualizer lineContactSpacing 3
par BLEKriptoAgi.visualizer.canvasVisualizer.dataLinkVisualizer lineContactMode "\"rectangular\""
attr enum circular,rectangular
par BLEKriptoAgi.visualizer.canvasVisualizer.dataLinkVisualizer labelFormat "\"%n\""
par BLEKriptoAgi.visualizer.canvasVisualizer.dataLinkVisualizer labelFont "\"<default>, 8px\""
par BLEKriptoAgi.visualizer.canvasVisualizer.dataLinkVisualizer labelColor "\"darkcyan\""
par BLEKriptoAgi.visualizer.canvasVisualizer.dataLinkVisualizer fadeOutMode "\"realTime\""
attr enum realTime,animationTime,simulationTime
par BLEKriptoAgi.visualizer.canvasVisualizer.dataLinkVisualizer fadeOutTime 1s
attr unit s
par BLEKriptoAgi.visualizer.canvasVisualizer.dataLinkVisualizer fadeOutAnimationSpeed 0
par BLEKriptoAgi.visualizer.canvasVisualizer.dataLinkVisualizer holdAnimationTime 0s
attr unit s
par BLEKriptoAgi.visualizer.canvasVisualizer.dataLinkVisualizer zIndex 2
par BLEKriptoAgi.visualizer.canvasVisualizer.linkBreakVisualizer typename "\"inet.visualizer.canvas.linklayer.LinkBreakCanvasVisualizer\""
par BLEKriptoAgi.visualizer.canvasVisualizer.linkBreakVisualizer visualizationTargetModule "\"^.^.^\""
par BLEKriptoAgi.visualizer.canvasVisualizer.linkBreakVisualizer visualizationSubjectModule "\"^.^.^\""
par BLEKriptoAgi.visualizer.canvasVisualizer.linkBreakVisualizer tags "\"\""
par BLEKriptoAgi.visualizer.canvasVisualizer.linkBreakVisualizer displayLinkBreaks false
par BLEKriptoAgi.visualizer.canvasVisualizer.linkBreakVisualizer nodeFilter "\"*\""
attr mutable ""
par BLEKriptoAgi.visualizer.canvasVisualizer.linkBreakVisualizer interfaceFilter "\"*\""
attr mutable ""
par BLEKriptoAgi.visualizer.canvasVisualizer.linkBreakVisualizer packetFilter "(omnetpp::cValueHolder)holder: \"*\""
attr mutable ""
par BLEKriptoAgi.visualizer.canvasVisualizer.linkBreakVisualizer icon "\"status/stop\""
par BLEKriptoAgi.visualizer.canvasVisualizer.linkBreakVisualizer iconTintAmount 0
par BLEKriptoAgi.visualizer.canvasVisualizer.linkBreakVisualizer iconTintColor "\"\""
par BLEKriptoAgi.visualizer.canvasVisualizer.linkBreakVisualizer fadeOutMode "\"realTime\""
attr enum realTime,animationTime,simulationTime
par BLEKriptoAgi.visualizer.canvasVisualizer.linkBreakVisualizer fadeOutTime 1s
attr unit s
par BLEKriptoAgi.visualizer.canvasVisualizer.linkBreakVisualizer fadeOutAnimationSpeed 0
par BLEKriptoAgi.visualizer.canvasVisualizer.linkBreakVisualizer zIndex 2
par BLEKriptoAgi.visualizer.canvasVisualizer.ieee80211Visualizer typename "\"inet.visualizer.canvas.linklayer.Ieee80211CanvasVisualizer\""
par BLEKriptoAgi.visualizer.canvasVisualizer.ieee80211Visualizer visualizationTargetModule "\"^.^.^\""
par BLEKriptoAgi.visualizer.canvasVisualizer.ieee80211Visualizer visualizationSubjectModule "\"^.^.^\""
par BLEKriptoAgi.visualizer.canvasVisualizer.ieee80211Visualizer tags "\"\""
par BLEKriptoAgi.visualizer.canvasVisualizer.ieee80211Visualizer networkNodeVisualizerModule "\"^.networkNodeVisualizer\""
par BLEKriptoAgi.visualizer.canvasVisualizer.ieee80211Visualizer displayAssociations false
par BLEKriptoAgi.visualizer.canvasVisualizer.ieee80211Visualizer nodeFilter "\"*\""
attr mutable ""
par BLEKriptoAgi.visualizer.canvasVisualizer.ieee80211Visualizer interfaceFilter "\"*\""
attr mutable ""
par BLEKriptoAgi.visualizer.canvasVisualizer.ieee80211Visualizer minPower -85dBm
attr unit dBm
par BLEKriptoAgi.visualizer.canvasVisualizer.ieee80211Visualizer maxPower -50dBm
attr unit dBm
par BLEKriptoAgi.visualizer.canvasVisualizer.ieee80211Visualizer icons "\"misc/signal_power_0 misc/signal_power_1 misc/signal_power_2 misc/signal_power_3\""
par BLEKriptoAgi.visualizer.canvasVisualizer.ieee80211Visualizer iconColor "\"dark\""
par BLEKriptoAgi.visualizer.canvasVisualizer.ieee80211Visualizer labelFont "\"<default>\""
par BLEKriptoAgi.visualizer.canvasVisualizer.ieee80211Visualizer labelColor "\"black\""
par BLEKriptoAgi.visualizer.canvasVisualizer.ieee80211Visualizer placementHint "\"top\""
par BLEKriptoAgi.visualizer.canvasVisualizer.ieee80211Visualizer placementPriority 0
par BLEKriptoAgi.visualizer.canvasVisualizer.ieee80211Visualizer zIndex 2
par BLEKriptoAgi.visualizer.canvasVisualizer.networkRouteVisualizer typename "\"inet.visualizer.canvas.networklayer.NetworkRouteCanvasVisualizer\""
par BLEKriptoAgi.visualizer.canvasVisualizer.networkRouteVisualizer visualizationTargetModule "\"^.^.^\""
par BLEKriptoAgi.visualizer.canvasVisualizer.networkRouteVisualizer visualizationSubjectModule "\"^.^.^\""
par BLEKriptoAgi.visualizer.canvasVisualizer.networkRouteVisualizer tags "\"\""
par BLEKriptoAgi.visualizer.canvasVisualizer.networkRouteVisualizer displayRoutes false
par BLEKriptoAgi.visualizer.canvasVisualizer.networkRouteVisualizer startPathSignal "\"packetReceivedFromUpper\""
par BLEKriptoAgi.visualizer.canvasVisualizer.networkRouteVisualizer extendPathSignal "\"packetReceivedFromLower\""
par BLEKriptoAgi.visualizer.canvasVisualizer.networkRouteVisualizer endPathSignal "\"packetSentToUpper\""
par BLEKriptoAgi.visualizer.canvasVisualizer.networkRouteVisualizer nodeFilter "\"*\""
attr mutable ""
par BLEKriptoAgi.visualizer.canvasVisualizer.networkRouteVisualizer packetFilter "(omnetpp::cValueHolder)holder: \"*\""
attr mutable ""
par BLEKriptoAgi.visualizer.canvasVisualizer.networkRouteVisualizer lineColor "\"dark\""
par BLEKriptoAgi.visualizer.canvasVisualizer.networkRouteVisualizer lineStyle "\"solid\""
par BLEKriptoAgi.visualizer.canvasVisualizer.networkRouteVisualizer lineWidth 3
par BLEKriptoAgi.visualizer.canvasVisualizer.networkRouteVisualizer lineSmooth false
par BLEKriptoAgi.visualizer.canvasVisualizer.networkRouteVisualizer lineShift 16
par BLEKriptoAgi.visualizer.canvasVisualizer.networkRouteVisualizer lineShiftMode "\"normal\""
par BLEKriptoAgi.visualizer.canvasVisualizer.networkRouteVisualizer lineContactSpacing 3
par BLEKriptoAgi.visualizer.canvasVisualizer.networkRouteVisualizer lineContactMode "\"rectangular\""
attr enum circular,rectangular
par BLEKriptoAgi.visualizer.canvasVisualizer.networkRouteVisualizer labelFormat "\"%n\""
par BLEKriptoAgi.visualizer.canvasVisualizer.networkRouteVisualizer labelFont "\"<default>, 8px\""
par BLEKriptoAgi.visualizer.canvasVisualizer.networkRouteVisualizer labelColor "\"\""
par BLEKriptoAgi.visualizer.canvasVisualizer.networkRouteVisualizer fadeOutMode "\"realTime\""
attr enum realTime,animationTime,simulationTime
par BLEKriptoAgi.visualizer.canvasVisualizer.networkRouteVisualizer fadeOutTime 1s
attr unit s
par BLEKriptoAgi.visualizer.canvasVisualizer.networkRouteVisualizer fadeOutAnimationSpeed 0
par BLEKriptoAgi.visualizer.canvasVisualizer.networkRouteVisualizer zIndex 3
par BLEKriptoAgi.visualizer.canvasVisualizer.routingTableVisualizer typename "\"inet.visualizer.canvas.networklayer.RoutingTableCanvasVisualizer\""
par BLEKriptoAgi.visualizer.canvasVisualizer.routingTableVisualizer visualizationTargetModule "\"^.^.^\""
par BLEKriptoAgi.visualizer.canvasVisualizer.routingTableVisualizer visualizationSubjectModule "\"^.^.^\""
par BLEKriptoAgi.visualizer.canvasVisualizer.routingTableVisualizer tags "\"\""
par BLEKriptoAgi.visualizer.canvasVisualizer.routingTableVisualizer displayRoutingTables false
par BLEKriptoAgi.visualizer.canvasVisualizer.routingTableVisualizer displayRoutesIndividually true
par BLEKriptoAgi.visualizer.canvasVisualizer.routingTableVisualizer displayLabels true
par BLEKriptoAgi.visualizer.canvasVisualizer.routingTableVisualizer destinationFilter "\"*\""
attr mutable ""
par BLEKriptoAgi.visualizer.canvasVisualizer.routingTableVisualizer nodeFilter "\"*\""
attr mutable ""
par BLEKriptoAgi.visualizer.canvasVisualizer.routingTableVisualizer lineColor "\"black\""
par BLEKriptoAgi.visualizer.canvasVisualizer.routingTableVisualizer lineStyle "\"solid\""
par BLEKriptoAgi.visualizer.canvasVisualizer.routingTableVisualizer lineWidth 2
par BLEKriptoAgi.visualizer.canvasVisualizer.routingTableVisualizer lineShift 16
par BLEKriptoAgi.visualizer.canvasVisualizer.routingTableVisualizer lineShiftMode "\"normal\""
par BLEKriptoAgi.visualizer.canvasVisualizer.routingTableVisualizer lineContactSpacing 3
par BLEKriptoAgi.visualizer.canvasVisualizer.routingTableVisualizer lineContactMode "\"rectangular\""
attr enum circular,rectangular
par BLEKriptoAgi.visualizer.canvasVisualizer.routingTableVisualizer labelFormat "\"%d/%m -> %g (%n)\""
attr mutable ""
par BLEKriptoAgi.visualizer.canvasVisualizer.routingTableVisualizer labelFont "\"<default>, 8px\""
par BLEKriptoAgi.visualizer.canvasVisualizer.routingTableVisualizer labelColor "\"black\""
par BLEKriptoAgi.visualizer.canvasVisualizer.routingTableVisualizer zIndex 0
par BLEKriptoAgi.visualizer.canvasVisualizer.transportRouteVisualizer typename "\"inet.visualizer.canvas.transportlayer.TransportRouteCanvasVisualizer\""
par BLEKriptoAgi.visualizer.canvasVisualizer.transportRouteVisualizer visualizationTargetModule "\"^.^.^\""
par BLEKriptoAgi.visualizer.canvasVisualizer.transportRouteVisualizer visualizationSubjectModule "\"^.^.^\""
par BLEKriptoAgi.visualizer.canvasVisualizer.transportRouteVisualizer tags "\"\""
par BLEKriptoAgi.visualizer.canvasVisualizer.transportRouteVisualizer displayRoutes false
par BLEKriptoAgi.visualizer.canvasVisualizer.transportRouteVisualizer startPathSignal "\"packetReceivedFromUpper\""
par BLEKriptoAgi.visualizer.canvasVisualizer.transportRouteVisualizer extendPathSignal "\"packetReceivedFromLower\""
par BLEKriptoAgi.visualizer.canvasVisualizer.transportRouteVisualizer endPathSignal "\"packetSentToUpper\""
par BLEKriptoAgi.visualizer.canvasVisualizer.transportRouteVisualizer nodeFilter "\"*\""
attr mutable ""
par BLEKriptoAgi.visualizer.canvasVisualizer.transportRouteVisualizer packetFilter "(omnetpp::cValueHolder)holder: \"*\""
attr mutable ""
par BLEKriptoAgi.visualizer.canvasVisualizer.transportRouteVisualizer lineColor "\"dark\""
par BLEKriptoAgi.visualizer.canvasVisualizer.transportRouteVisualizer lineStyle "\"solid\""
par BLEKriptoAgi.visualizer.canvasVisualizer.transportRouteVisualizer lineWidth 3
par BLEKriptoAgi.visualizer.canvasVisualizer.transportRouteVisualizer lineSmooth false
par BLEKriptoAgi.visualizer.canvasVisualizer.transportRouteVisualizer lineShift 16
par BLEKriptoAgi.visualizer.canvasVisualizer.transportRouteVisualizer lineShiftMode "\"normal\""
par BLEKriptoAgi.visualizer.canvasVisualizer.transportRouteVisualizer lineContactSpacing 3
par BLEKriptoAgi.visualizer.canvasVisualizer.transportRouteVisualizer lineContactMode "\"rectangular\""
attr enum circular,rectangular
par BLEKriptoAgi.visualizer.canvasVisualizer.transportRouteVisualizer labelFormat "\"%n\""
par BLEKriptoAgi.visualizer.canvasVisualizer.transportRouteVisualizer labelFont "\"<default>, 8px\""
par BLEKriptoAgi.visualizer.canvasVisualizer.transportRouteVisualizer labelColor "\"\""
par BLEKriptoAgi.visualizer.canvasVisualizer.transportRouteVisualizer fadeOutMode "\"realTime\""
attr enum realTime,animationTime,simulationTime
par BLEKriptoAgi.visualizer.canvasVisualizer.transportRouteVisualizer fadeOutTime 1s
attr unit s
par BLEKriptoAgi.visualizer.canvasVisualizer.transportRouteVisualizer fadeOutAnimationSpeed 0
par BLEKriptoAgi.visualizer.canvasVisualizer.transportRouteVisualizer zIndex 4
par BLEKriptoAgi.visualizer.canvasVisualizer.transportConnectionVisualizer typename "\"inet.visualizer.canvas.transportlayer.TransportConnectionCanvasVisualizer\""
par BLEKriptoAgi.visualizer.canvasVisualizer.transportConnectionVisualizer visualizationTargetModule "\"^.^.^\""
par BLEKriptoAgi.visualizer.canvasVisualizer.transportConnectionVisualizer visualizationSubjectModule "\"^.^.^\""
par BLEKriptoAgi.visualizer.canvasVisualizer.transportConnectionVisualizer tags "\"\""
par BLEKriptoAgi.visualizer.canvasVisualizer.transportConnectionVisualizer networkNodeVisualizerModule "\"^.networkNodeVisualizer\""
par BLEKriptoAgi.visualizer.canvasVisualizer.transportConnectionVisualizer displayTransportConnections false
par BLEKriptoAgi.visualizer.canvasVisualizer.transportConnectionVisualizer sourceNodeFilter "\"*\""
attr mutable ""
par BLEKriptoAgi.visualizer.canvasVisualizer.transportConnectionVisualizer sourcePortFilter "\"*\""
attr mutable ""
par BLEKriptoAgi.visualizer.canvasVisualizer.transportConnectionVisualizer destinationNodeFilter "\"*\""
attr mutable ""
par BLEKriptoAgi.visualizer.canvasVisualizer.transportConnectionVisualizer destinationPortFilter "\"*\""
attr mutable ""
par BLEKriptoAgi.visualizer.canvasVisualizer.transportConnectionVisualizer icon "\"misc/marker_s\""
par BLEKriptoAgi.visualizer.canvasVisualizer.transportConnectionVisualizer iconColor "\"dark\""
par BLEKriptoAgi.visualizer.canvasVisualizer.transportConnectionVisualizer labelFont "\"<default>\""
par BLEKriptoAgi.visualizer.canvasVisualizer.transportConnectionVisualizer labelColor "\"black\""
par BLEKriptoAgi.visualizer.canvasVisualizer.transportConnectionVisualizer placementHint "\"top\""
par BLEKriptoAgi.visualizer.canvasVisualizer.transportConnectionVisualizer placementPriority 0
par BLEKriptoAgi.visualizer.canvasVisualizer.transportConnectionVisualizer zIndex 4
par BLEKriptoAgi.visualizer.canvasVisualizer.failureProtectionConfigurationVisualizer typename "\"inet.visualizer.canvas.configurator.FailureProtectionConfigurationCanvasVisualizer\""
par BLEKriptoAgi.visualizer.canvasVisualizer.failureProtectionConfigurationVisualizer visualizationTargetModule "\"^.^.^\""
par BLEKriptoAgi.visualizer.canvasVisualizer.failureProtectionConfigurationVisualizer visualizationSubjectModule "\"^.^.^\""
par BLEKriptoAgi.visualizer.canvasVisualizer.failureProtectionConfigurationVisualizer tags "\"\""
par BLEKriptoAgi.visualizer.canvasVisualizer.failureProtectionConfigurationVisualizer displayTrees false
par BLEKriptoAgi.visualizer.canvasVisualizer.failureProtectionConfigurationVisualizer lineColor "\"dark\""
par BLEKriptoAgi.visualizer.canvasVisualizer.failureProtectionConfigurationVisualizer lineStyle "\"solid\""
par BLEKriptoAgi.visualizer.canvasVisualizer.failureProtectionConfigurationVisualizer lineWidth 3
par BLEKriptoAgi.visualizer.canvasVisualizer.failureProtectionConfigurationVisualizer lineSmooth false
par BLEKriptoAgi.visualizer.canvasVisualizer.failureProtectionConfigurationVisualizer lineShift 16
par BLEKriptoAgi.visualizer.canvasVisualizer.failureProtectionConfigurationVisualizer lineShiftMode "\"normal\""
par BLEKriptoAgi.visualizer.canvasVisualizer.failureProtectionConfigurationVisualizer lineContactSpacing 3
par BLEKriptoAgi.visualizer.canvasVisualizer.failureProtectionConfigurationVisualizer lineContactMode "\"rectangular\""
attr enum circular,rectangular
par BLEKriptoAgi.visualizer.canvasVisualizer.failureProtectionConfigurationVisualizer failureProtectionConfiguratorModule "\"failureProtectionConfigurator\""
par BLEKriptoAgi.visualizer.canvasVisualizer.failureProtectionConfigurationVisualizer streamFilter "\"*\""
par BLEKriptoAgi.visualizer.canvasVisualizer.failureProtectionConfigurationVisualizer zIndex 3
par BLEKriptoAgi.visualizer.canvasVisualizer.streamRedundancyConfigurationVisualizer typename "\"inet.visualizer.canvas.configurator.StreamRedundancyConfigurationCanvasVisualizer\""
par BLEKriptoAgi.visualizer.canvasVisualizer.streamRedundancyConfigurationVisualizer visualizationTargetModule "\"^.^.^\""
par BLEKriptoAgi.visualizer.canvasVisualizer.streamRedundancyConfigurationVisualizer visualizationSubjectModule "\"^.^.^\""
par BLEKriptoAgi.visualizer.canvasVisualizer.streamRedundancyConfigurationVisualizer tags "\"\""
par BLEKriptoAgi.visualizer.canvasVisualizer.streamRedundancyConfigurationVisualizer displayTrees false
par BLEKriptoAgi.visualizer.canvasVisualizer.streamRedundancyConfigurationVisualizer lineColor "\"dark\""
par BLEKriptoAgi.visualizer.canvasVisualizer.streamRedundancyConfigurationVisualizer lineStyle "\"solid\""
par BLEKriptoAgi.visualizer.canvasVisualizer.streamRedundancyConfigurationVisualizer lineWidth 3
par BLEKriptoAgi.visualizer.canvasVisualizer.streamRedundancyConfigurationVisualizer lineSmooth false
par BLEKriptoAgi.visualizer.canvasVisualizer.streamRedundancyConfigurationVisualizer lineShift 16
par BLEKriptoAgi.visualizer.canvasVisualizer.streamRedundancyConfigurationVisualizer lineShiftMode "\"normal\""
par BLEKriptoAgi.visualizer.canvasVisualizer.streamRedundancyConfigurationVisualizer lineContactSpacing 3
par BLEKriptoAgi.visualizer.canvasVisualizer.streamRedundancyConfigurationVisualizer lineContactMode "\"rectangular\""
attr enum circular,rectangular
par BLEKriptoAgi.visualizer.canvasVisualizer.streamRedundancyConfigurationVisualizer streamRedundancyConfiguratorModule "\"streamRedundancyConfigurator\""
par BLEKriptoAgi.visualizer.canvasVisualizer.streamRedundancyConfigurationVisualizer streamFilter "\"*\""
par BLEKriptoAgi.visualizer.canvasVisualizer.streamRedundancyConfigurationVisualizer zIndex 3
par BLEKriptoAgi.visualizer.canvasVisualizer typename "\"inet.visualizer.canvas.integrated.IntegratedCanvasVisualizer\""
par BLEKriptoAgi.visualizer typename "\"inet.visualizer.common.IntegratedVisualizer\""
par BLEKriptoAgi.configurator typename "\"inet.networklayer.configurator.ipv6.Ipv6FlatNetworkConfigurator\""
par BLEKriptoAgi.radioMedium.propagation typename "\"inet.physicallayer.wireless.common.propagation.ConstantSpeedPropagation\""
par BLEKriptoAgi.radioMedium.propagation propagationSpeed 2.99792e+08mps
attr unit mps
par BLEKriptoAgi.radioMedium.propagation ignoreMovementDuringTransmission true
par BLEKriptoAgi.radioMedium.propagation ignoreMovementDuringPropagation true
par BLEKriptoAgi.radioMedium.propagation ignoreMovementDuringReception true
scalar BLEKriptoAgi.radioMedium.propagation "Arrival computation count" 832
par BLEKriptoAgi.radioMedium.analogModel typename "\"inet.physicallayer.wireless.common.analogmodel.packetlevel.ScalarAnalogModel\""
par BLEKriptoAgi.radioMedium.analogModel ignorePartialInterference false
par BLEKriptoAgi.radioMedium.backgroundNoise typename "\"inet.physicallayer.wireless.common.backgroundnoise.IsotropicScalarBackgroundNoise\""
par BLEKriptoAgi.radioMedium.backgroundNoise power -110dBm
attr unit dBm
par BLEKriptoAgi.radioMedium.backgroundNoise bandwidth "nan Hz"
attr unit Hz
par BLEKriptoAgi.radioMedium.pathLoss typename "\"inet.physicallayer.wireless.common.pathloss.FreeSpacePathLoss\""
par BLEKriptoAgi.radioMedium.pathLoss alpha 2
par BLEKriptoAgi.radioMedium.pathLoss systemLoss 0dB
attr unit dB
par BLEKriptoAgi.radioMedium.mediumLimitCache typename "\"inet.physicallayer.wireless.common.medium.MediumLimitCache\""
par BLEKriptoAgi.radioMedium.mediumLimitCache centerFrequency 2.4e+09Hz
attr unit Hz
par BLEKriptoAgi.radioMedium.mediumLimitCache maxSpeed "nan mps"
attr unit mps
par BLEKriptoAgi.radioMedium.mediumLimitCache maxTransmissionPower "nan W"
attr unit W
par BLEKriptoAgi.radioMedium.mediumLimitCache minInterferencePower "nan dBm"
attr unit dBm
par BLEKriptoAgi.radioMedium.mediumLimitCache minReceptionPower "nan dBm"
attr unit dBm
par BLEKriptoAgi.radioMedium.mediumLimitCache maxAntennaGain 0dB
attr unit dB
par BLEKriptoAgi.radioMedium.mediumLimitCache minInterferenceTime 1e-12s
attr unit s
par BLEKriptoAgi.radioMedium.mediumLimitCache maxTransmissionDuration 1s
attr unit s
par BLEKriptoAgi.radioMedium.mediumLimitCache maxCommunicationRange "nan m"
attr unit m
par BLEKriptoAgi.radioMedium.mediumLimitCache maxInterferenceRange "nan m"
attr unit m
par BLEKriptoAgi.radioMedium.communicationCache typename "\"inet.physicallayer.wireless.common.communicationcache.VectorCommunicationCache\""
par BLEKriptoAgi.radioMedium typename "\"inet.physicallayer.wireless.common.medium.RadioMedium\""
par BLEKriptoAgi.radioMedium physicalEnvironmentModule "\"physicalEnvironment\""
par BLEKriptoAgi.radioMedium signalAnalogRepresentation "\"scalar\""
attr enum unitDisk,scalar,dimensional
par BLEKriptoAgi.radioMedium rangeFilter "\"\""
par BLEKriptoAgi.radioMedium radioModeFilter false
par BLEKriptoAgi.radioMedium listeningFilter false
par BLEKriptoAgi.radioMedium macAddressFilter false
par BLEKriptoAgi.radioMedium recordTransmissionLog false
par BLEKriptoAgi.radioMedium recordReceptionLog false
scalar BLEKriptoAgi.radioMedium "transmission count" 416
scalar BLEKriptoAgi.radioMedium "signal send count" 832
scalar BLEKriptoAgi.radioMedium "reception computation count" 832
scalar BLEKriptoAgi.radioMedium "interference computation count" 2918
scalar BLEKriptoAgi.radioMedium "reception decision computation count" 621
scalar BLEKriptoAgi.radioMedium "listening decision computation count" 1465
scalar BLEKriptoAgi.radioMedium "reception cache hit" 83.972259680216
attr unit %
scalar BLEKriptoAgi.radioMedium "interference cache hit" 66.666666666667
attr unit %
scalar BLEKriptoAgi.radioMedium "noise cache hit" 0
attr unit %
scalar BLEKriptoAgi.radioMedium "snir cache hit" 50
attr unit %
scalar BLEKriptoAgi.radioMedium "reception decision cache hit" 50
attr unit %
scalar BLEKriptoAgi.radioMedium "reception result cache hit" 0
attr unit %
par BLEKriptoAgi.sensorNode.radioIn[0].channel typename "\"ned.IdealChannel\""
par BLEKriptoAgi.sensorNode.energyStorage typename "\"inet.power.storage.IdealEpEnergyStorage\""
scalar BLEKriptoAgi.sensorNode.energyStorage residualEnergyCapacity:last -0.063314944653343
attr interpolationmode linear
attr recordingmode last
attr source residualEnergyCapacityChanged
attr title "Residual energy capacity, last"
attr unit J
par BLEKriptoAgi.sensorNode.mobility typename "\"inet.mobility.static.StationaryMobility\""
par BLEKriptoAgi.sensorNode.mobility subjectModule "\"^\""
par BLEKriptoAgi.sensorNode.mobility coordinateSystemModule "\"\""
par BLEKriptoAgi.sensorNode.mobility displayStringTextFormat "\"p: %p\\nv: %v\""
attr mutable ""
par BLEKriptoAgi.sensorNode.mobility updateDisplayString true
par BLEKriptoAgi.sensorNode.mobility constraintAreaMinX "-inf m"
attr unit m
par BLEKriptoAgi.sensorNode.mobility constraintAreaMinY "-inf m"
attr unit m
par BLEKriptoAgi.sensorNode.mobility constraintAreaMinZ "-inf m"
attr unit m
par BLEKriptoAgi.sensorNode.mobility constraintAreaMaxX "inf m"
attr unit m
par BLEKriptoAgi.sensorNode.mobility constraintAreaMaxY "inf m"
attr unit m
par BLEKriptoAgi.sensorNode.mobility constraintAreaMaxZ "inf m"
attr unit m
par BLEKriptoAgi.sensorNode.mobility initialX "nan m"
attr unit m
par BLEKriptoAgi.sensorNode.mobility initialY "nan m"
attr unit m
par BLEKriptoAgi.sensorNode.mobility initialZ 0m
attr unit m
par BLEKriptoAgi.sensorNode.mobility initialLatitude "nan deg"
attr unit deg
par BLEKriptoAgi.sensorNode.mobility initialLongitude "nan deg"
attr unit deg
par BLEKriptoAgi.sensorNode.mobility initialAltitude 0m
attr unit m
par BLEKriptoAgi.sensorNode.mobility initialHeading 0deg
attr unit deg
par BLEKriptoAgi.sensorNode.mobility initialElevation 0deg
attr unit deg
par BLEKriptoAgi.sensorNode.mobility initialBank 0deg
attr unit deg
par BLEKriptoAgi.sensorNode.mobility initFromDisplayString true
par BLEKriptoAgi.sensorNode.mobility updateFromDisplayString true
par BLEKriptoAgi.sensorNode.interfaceTable typename "\"inet.networklayer.common.InterfaceTable\""
par BLEKriptoAgi.sensorNode.interfaceTable displayAddresses false
par BLEKriptoAgi.sensorNode.cb typename "\"inet.common.MessageDispatcher\""
par BLEKriptoAgi.sensorNode.cb displayStringTextFormat "\"processed %p pk (%l)\""
par BLEKriptoAgi.sensorNode.cb forwardServiceRegistration true
par BLEKriptoAgi.sensorNode.cb forwardProtocolRegistration true
par BLEKriptoAgi.sensorNode.bl typename "\"inet.common.MessageDispatcher\""
par BLEKriptoAgi.sensorNode.bl displayStringTextFormat "\"processed %p pk (%l)\""
par BLEKriptoAgi.sensorNode.bl forwardServiceRegistration true
par BLEKriptoAgi.sensorNode.bl forwardProtocolRegistration true
par BLEKriptoAgi.sensorNode.li typename "\"inet.common.MessageDispatcher\""
par BLEKriptoAgi.sensorNode.li displayStringTextFormat "\"processed %p pk (%l)\""
par BLEKriptoAgi.sensorNode.li forwardServiceRegistration true
par BLEKriptoAgi.sensorNode.li forwardProtocolRegistration true
par BLEKriptoAgi.sensorNode.lo[0].upperLayerIn.channel typename "\"ned.IdealChannel\""
par BLEKriptoAgi.sensorNode.lo[0].lo.upperLayerOut.channel typename "\"ned.IdealChannel\""
par BLEKriptoAgi.sensorNode.lo[0].lo typename "\"inet.linklayer.loopback.Loopback\""
par BLEKriptoAgi.sensorNode.lo[0].lo interfaceTableModule "\"BLEKriptoAgi.sensorNode.interfaceTable\""
par BLEKriptoAgi.sensorNode.lo[0].lo mtu 4470B
attr unit B
scalar BLEKriptoAgi.sensorNode.lo[0].lo rcvdPkFromHl:count 0
attr interpolationmode none
attr recordingmode count
attr source packetReceivedFromUpper
attr title "packets received from higher layer, count"
scalar BLEKriptoAgi.sensorNode.lo[0].lo rcvdPkFromHl:sum(packetBytes) 0
attr interpolationmode none
attr recordingmode sum(packetBytes)
attr source packetReceivedFromUpper
attr title "packets received from higher layer, sum(packetBytes)"
scalar BLEKriptoAgi.sensorNode.lo[0].lo passedUpPk:count 0
attr interpolationmode none
attr recordingmode count
attr source packetSentToUpper
attr title "packets passed to higher layer, count"
scalar BLEKriptoAgi.sensorNode.lo[0].lo passedUpPk:sum(packetBytes) 0
attr interpolationmode none
attr recordingmode sum(packetBytes)
attr source packetSentToUpper
attr title "packets passed to higher layer, sum(packetBytes)"
par BLEKriptoAgi.sensorNode.lo[0] typename "\"inet.linklayer.loopback.LoopbackInterface\""
par BLEKriptoAgi.sensorNode.lo[0] displayStringTextFormat "\"%a (%i)\\n%m\""
par BLEKriptoAgi.sensorNode.lo[0] recordPcap false
par BLEKriptoAgi.sensorNode.lo[0] numPcapRecorders 0
par BLEKriptoAgi.sensorNode.lo[0] interfaceTableModule "\"BLEKriptoAgi.sensorNode.interfaceTable\""
scalar BLEKriptoAgi.sensorNode.lo[0] packetDropInterfaceDown:count 0
attr interpolationmode none
attr recordingmode count
attr source packetDropReasonIsInterfaceDown(packetDropped)
attr title "packet drops: interface down, count"
scalar BLEKriptoAgi.sensorNode.lo[0] packetDropInterfaceDown:sum(packetBytes) 0
attr interpolationmode none
attr recordingmode sum(packetBytes)
attr source packetDropReasonIsInterfaceDown(packetDropped)
attr title "packet drops: interface down, sum(packetBytes)"
scalar BLEKriptoAgi.sensorNode.lo[0] packetDropNoCarrier:count 0
attr interpolationmode none
attr recordingmode count
attr source packetDropReasonIsNoCarrier(packetDropped)
attr title "packet drops: no carrier, count"
scalar BLEKriptoAgi.sensorNode.lo[0] packetDropNoCarrier:sum(packetBytes) 0
attr interpolationmode none
attr recordingmode sum(packetBytes)
attr source packetDropReasonIsNoCarrier(packetDropped)
attr title "packet drops: no carrier, sum(packetBytes)"
par BLEKriptoAgi.sensorNode.wlan[0].upperLayerIn.channel typename "\"ned.IdealChannel\""
par BLEKriptoAgi.sensorNode.wlan[0].radioIn.channel typename "\"ned.IdealChannel\""
par BLEKriptoAgi.sensorNode.wlan[0].mac.upperLayerOut.channel typename "\"ned.IdealChannel\""
par BLEKriptoAgi.sensorNode.wlan[0].queue typename "\"inet.queueing.queue.DropTailQueue\""
par BLEKriptoAgi.sensorNode.wlan[0].queue displayStringTextFormat "\"contains %p pk (%l) pushed %u\\npulled %o removed %r dropped %d\""
par BLEKriptoAgi.sensorNode.wlan[0].queue packetCapacity 100
par BLEKriptoAgi.sensorNode.wlan[0].queue dataCapacity -1b
attr unit b
par BLEKriptoAgi.sensorNode.wlan[0].queue dropperClass "\"inet::queueing::PacketAtCollectionEndDropper\""
par BLEKriptoAgi.sensorNode.wlan[0].queue comparatorClass "\"\""
par BLEKriptoAgi.sensorNode.wlan[0].queue bufferModule "\"\""
scalar BLEKriptoAgi.sensorNode.wlan[0].queue queueLength:last 2
attr autoWarmupFilter false
attr interpolationmode sample-hold
attr recordingmode last
attr source "warmup(atomic(constant0(packetPushEnded) + count(packetPushStarted) - count(packetPulled) - count(packetRemoved) - count(packetDropped)))"
attr title "queue length, last"
attr unit pk
scalar BLEKriptoAgi.sensorNode.wlan[0].queue queueLength:max 6
attr autoWarmupFilter false
attr interpolationmode sample-hold
attr recordingmode max
attr source "warmup(atomic(constant0(packetPushEnded) + count(packetPushStarted) - count(packetPulled) - count(packetRemoved) - count(packetDropped)))"
attr title "queue length, max"
attr unit pk
scalar BLEKriptoAgi.sensorNode.wlan[0].queue queueLength:timeavg 0.0096999012909224
attr autoWarmupFilter false
attr interpolationmode sample-hold
attr recordingmode timeavg
attr source "warmup(atomic(constant0(packetPushEnded) + count(packetPushStarted) - count(packetPulled) - count(packetRemoved) - count(packetDropped)))"
attr title "queue length, timeavg"
attr unit pk
scalar BLEKriptoAgi.sensorNode.wlan[0].queue queueBitLength:last 1664
attr autoWarmupFilter false
attr interpolationmode sample-hold
attr recordingmode last
attr source "warmup(atomic(constant0(packetPushEnded) + sum(packetLength(packetPushStarted)) - sum(packetLength(packetPulled)) - sum(packetLength(packetRemoved)) - sum(packetLength(packetDropped))))"
attr title "queue bit length, last"
attr unit b
scalar BLEKriptoAgi.sensorNode.wlan[0].queue queueBitLength:max 4992
attr autoWarmupFilter false
attr interpolationmode sample-hold
attr recordingmode max
attr source "warmup(atomic(constant0(packetPushEnded) + sum(packetLength(packetPushStarted)) - sum(packetLength(packetPulled)) - sum(packetLength(packetRemoved)) - sum(packetLength(packetDropped))))"
attr title "queue bit length, max"
attr unit b
scalar BLEKriptoAgi.sensorNode.wlan[0].queue queueBitLength:timeavg 7.6507020061284
attr autoWarmupFilter false
attr interpolationmode sample-hold
attr recordingmode timeavg
attr source "warmup(atomic(constant0(packetPushEnded) + sum(packetLength(packetPushStarted)) - sum(packetLength(packetPulled)) - sum(packetLength(packetRemoved)) - sum(packetLength(packetDropped))))"
attr title "queue bit length, timeavg"
attr unit b
statistic BLEKriptoAgi.sensorNode.wlan[0].queue queueingTime:histogram
field count 207
field mean 0.0046656043594976
field stddev 0.0043609131821322
field min 0.000128
field max 0.02983067128
field sum 0.965780102416
field sqrsum 0.0084235659952596
attr interpolationmode none
attr recordingmode histogram
attr source queueingTime(packetPulled)
attr title "queueing times"
attr unit s
bin	-inf	0
bin	0	22
bin	0.0005	16
bin	0.001	30
bin	0.0015	14
bin	0.002	22
bin	0.0025	0
bin	0.003	0
bin	0.0035	0
bin	0.004	0
bin	0.0045	0
bin	0.005	6
bin	0.0055	4
bin	0.006	13
bin	0.0065	26
bin	0.007	10
bin	0.0075	16
bin	0.008	9
bin	0.0085	6
bin	0.009	2
bin	0.0095	3
bin	0.01	1
bin	0.0105	0
bin	0.011	0
bin	0.0115	0
bin	0.012	0
bin	0.0125	0
bin	0.013	0
bin	0.0135	1
bin	0.014	0
bin	0.0145	0
bin	0.015	1
bin	0.0155	0
bin	0.016	1
bin	0.0165	0
bin	0.017	0
bin	0.0175	0
bin	0.018	0
bin	0.0185	0
bin	0.019	0
bin	0.0195	1
bin	0.02	0
bin	0.0205	0
bin	0.021	0
bin	0.0215	1
bin	0.022	0
bin	0.0225	0
bin	0.023	0
bin	0.0235	0
bin	0.024	0
bin	0.0245	1
bin	0.025	0
bin	0.0255	0
bin	0.026	0
bin	0.0265	0
bin	0.027	0
bin	0.0275	0
bin	0.028	0
bin	0.0285	0
bin	0.029	0
bin	0.0295	1
bin	0.03	0
bin	0.0305	0
bin	0.031	0
bin	0.0315	0
bin	0.032	0
bin	0.0325	0
bin	0.033	0
bin	0.0335	0
bin	0.034	0
bin	0.0345	0
bin	0.035	0
bin	0.0355	0
bin	0.036	0
bin	0.0365	0
bin	0.037	0
bin	0.0375	0
scalar BLEKriptoAgi.sensorNode.wlan[0].queue outgoingPackets:count 207
attr recordingmode count
attr source packetPulled
attr title "outgoing packets, count"
attr unit pk
scalar BLEKriptoAgi.sensorNode.wlan[0].queue outgoingPacketLengths:sum 169344
attr interpolationmode none
attr recordingmode sum
attr source packetLength(packetPulled)
attr title "outgoing packet lengths, sum"
attr unit b
statistic BLEKriptoAgi.sensorNode.wlan[0].queue outgoingPacketLengths:histogram
field count 207
field mean 818.08695652174
field stddev 91.298997612044
field min 448
field max 896
field sum 169344
field sqrsum 140255232
attr interpolationmode none
attr recordingmode histogram
attr source packetLength(packetPulled)
attr title "outgoing packet lengths"
attr unit b
bin	-inf	0
bin	330	0
bin	340	0
bin	350	0
bin	360	0
bin	370	0
bin	380	0
bin	390	0
bin	400	0
bin	410	0
bin	420	0
bin	430	0
bin	440	3
bin	450	0
bin	460	0
bin	470	0
bin	480	0
bin	490	0
bin	500	0
bin	510	3
bin	520	0
bin	530	0
bin	540	0
bin	550	0
bin	560	0
bin	570	3
bin	580	0
bin	590	0
bin	600	0
bin	610	0
bin	620	0
bin	630	0
bin	640	0
bin	650	0
bin	660	0
bin	670	0
bin	680	0
bin	690	0
bin	700	0
bin	710	0
bin	720	0
bin	730	0
bin	740	0
bin	750	0
bin	760	99
bin	770	0
bin	780	0
bin	790	0
bin	800	0
bin	810	0
bin	820	0
bin	830	0
bin	840	0
bin	850	0
bin	860	0
bin	870	0
bin	880	0
bin	890	99
bin	900	0
bin	910	0
bin	920	0
bin	930	0
bin	940	0
bin	950	0
bin	960	0
bin	970	0
bin	980	0
bin	990	0
bin	1000	0
bin	1010	0
statistic BLEKriptoAgi.sensorNode.wlan[0].queue flowQueueingTime:histogram
field count 0
field mean -nan
field stddev -nan
field min -nan
field max -nan
field sum 0
field sqrsum 0
attr interpolationmode none
attr recordingmode histogram
attr source queueingTime(demuxFlow(packetPulled))
attr title "flow queueing times"
attr unit s
bin	-inf	0
bin	0	0
bin	1	0
scalar BLEKriptoAgi.sensorNode.wlan[0].queue incomingPackets:count 209
attr recordingmode count
attr source packetPushStarted
attr title "incoming packets, count"
attr unit pk
scalar BLEKriptoAgi.sensorNode.wlan[0].queue incomingPacketLengths:sum 171008
attr interpolationmode none
attr recordingmode sum
attr source packetLength(packetPushStarted)
attr title "incoming packet lengths, sum"
attr unit b
statistic BLEKriptoAgi.sensorNode.wlan[0].queue incomingPacketLengths:histogram
field count 209
field mean 818.22009569378
field stddev 91.085596777841
field min 448
field max 896
field sum 171008
field sqrsum 141647872
attr interpolationmode none
attr recordingmode histogram
attr source packetLength(packetPushStarted)
attr title "incoming packet lengths"
attr unit b
bin	-inf	0
bin	330	0
bin	340	0
bin	350	0
bin	360	0
bin	370	0
bin	380	0
bin	390	0
bin	400	0
bin	410	0
bin	420	0
bin	430	0
bin	440	3
bin	450	0
bin	460	0
bin	470	0
bin	480	0
bin	490	0
bin	500	0
bin	510	3
bin	520	0
bin	530	0
bin	540	0
bin	550	0
bin	560	0
bin	570	3
bin	580	0
bin	590	0
bin	600	0
bin	610	0
bin	620	0
bin	630	0
bin	640	0
bin	650	0
bin	660	0
bin	670	0
bin	680	0
bin	690	0
bin	700	0
bin	710	0
bin	720	0
bin	730	0
bin	740	0
bin	750	0
bin	760	100
bin	770	0
bin	780	0
bin	790	0
bin	800	0
bin	810	0
bin	820	0
bin	830	0
bin	840	0
bin	850	0
bin	860	0
bin	870	0
bin	880	0
bin	890	100
bin	900	0
bin	910	0
bin	920	0
bin	930	0
bin	940	0
bin	950	0
bin	960	0
bin	970	0
bin	980	0
bin	990	0
bin	1000	0
bin	1010	0
scalar BLEKriptoAgi.sensorNode.wlan[0].queue droppedPacketsQueueOverflow:count 0
attr interpolationmode none
attr recordingmode count
attr source packetDropReasonIsQueueOverflow(packetDropped)
attr title "dropped packets: queue overflow, count"
attr unit pk
scalar BLEKriptoAgi.sensorNode.wlan[0].queue droppedPacketLengthsQueueOverflow:sum 0
attr interpolationmode none
attr recordingmode sum
attr source packetLength(packetDropReasonIsQueueOverflow(packetDropped))
attr title "dropped packet lengths: queue overflow, sum"
attr unit b
par BLEKriptoAgi.sensorNode.wlan[0].mac typename "\"inet.linklayer.ieee802154.Ieee802154NarrowbandMac\""
par BLEKriptoAgi.sensorNode.wlan[0].mac interfaceTableModule "\"BLEKriptoAgi.sensorNode.interfaceTable\""
par BLEKriptoAgi.sensorNode.wlan[0].mac address "\"auto\""
attr mutable ""
par BLEKriptoAgi.sensorNode.wlan[0].mac headerLength 72b
attr unit b
par BLEKriptoAgi.sensorNode.wlan[0].mac mtu 118B
attr unit B
par BLEKriptoAgi.sensorNode.wlan[0].mac bitrate 250000bps
attr unit bps
par BLEKriptoAgi.sensorNode.wlan[0].mac ccaDetectionTime 0.000128s
attr unit s
par BLEKriptoAgi.sensorNode.wlan[0].mac rxSetupTime 0s
attr unit s
par BLEKriptoAgi.sensorNode.wlan[0].mac aTurnaroundTime 0.000192s
attr unit s
par BLEKriptoAgi.sensorNode.wlan[0].mac useMACAcks true
par BLEKriptoAgi.sensorNode.wlan[0].mac macMaxFrameRetries 3
par BLEKriptoAgi.sensorNode.wlan[0].mac macAckWaitDuration 0.00056s
attr unit s
par BLEKriptoAgi.sensorNode.wlan[0].mac ackLength 40b
attr unit b
par BLEKriptoAgi.sensorNode.wlan[0].mac sifs 0.000192s
attr unit s
par BLEKriptoAgi.sensorNode.wlan[0].mac backoffMethod "\"exponential\""
par BLEKriptoAgi.sensorNode.wlan[0].mac macMaxCSMABackoffs 4
par BLEKriptoAgi.sensorNode.wlan[0].mac aUnitBackoffPeriod 0.00032s
attr unit s
par BLEKriptoAgi.sensorNode.wlan[0].mac contentionWindow 2
par BLEKriptoAgi.sensorNode.wlan[0].mac macMinBE 3
par BLEKriptoAgi.sensorNode.wlan[0].mac macMaxBE 5
par BLEKriptoAgi.sensorNode.wlan[0].mac radioModule "\"^.radio\""
scalar BLEKriptoAgi.sensorNode.wlan[0].mac nbTxFrames 207
scalar BLEKriptoAgi.sensorNode.wlan[0].mac nbRxFrames 5
scalar BLEKriptoAgi.sensorNode.wlan[0].mac nbDroppedFrames 0
scalar BLEKriptoAgi.sensorNode.wlan[0].mac nbMissedAcks 0
scalar BLEKriptoAgi.sensorNode.wlan[0].mac nbRecvdAcks 198
scalar BLEKriptoAgi.sensorNode.wlan[0].mac nbTxAcks 0
scalar BLEKriptoAgi.sensorNode.wlan[0].mac nbDuplicates 0
scalar BLEKriptoAgi.sensorNode.wlan[0].mac meanBackoff 0.0011207582938389
scalar BLEKriptoAgi.sensorNode.wlan[0].mac nbBackoffs 211
scalar BLEKriptoAgi.sensorNode.wlan[0].mac backoffDurations 0.23648
scalar BLEKriptoAgi.sensorNode.wlan[0].mac packetDropNotAddressToUs:count 0
attr interpolationmode none
attr recordingmode count
attr source packetDropReasonIsNotAddressedToUs(packetDropped)
attr title "packet drop: not addressed to us, count"
scalar BLEKriptoAgi.sensorNode.wlan[0].mac packetDropNotAddressToUs:sum(packetBytes) 0
attr interpolationmode none
attr recordingmode sum(packetBytes)
attr source packetDropReasonIsNotAddressedToUs(packetDropped)
attr title "packet drop: not addressed to us, sum(packetBytes)"
scalar BLEKriptoAgi.sensorNode.wlan[0].mac packetDropIncorrectlyReceived:count 0
attr interpolationmode none
attr recordingmode count
attr source packetDropReasonIsIncorrectlyReceived(packetDropped)
attr title "packet drop: incorrectly received, count"
scalar BLEKriptoAgi.sensorNode.wlan[0].mac packetDropIncorrectlyReceived:sum(packetBytes) 0
attr interpolationmode none
attr recordingmode sum(packetBytes)
attr source packetDropReasonIsIncorrectlyReceived(packetDropped)
attr title "packet drop: incorrectly received, sum(packetBytes)"
scalar BLEKriptoAgi.sensorNode.wlan[0].mac packetDropQueueOverflow:count 0
attr interpolationmode none
attr recordingmode count
attr source packetDropReasonIsQueueOverflow(packetDropped)
attr title "packet drop: queue overflow, count"
scalar BLEKriptoAgi.sensorNode.wlan[0].mac packetDropQueueOverflow:sum(packetBytes) 0
attr interpolationmode none
attr recordingmode sum(packetBytes)
attr source packetDropReasonIsQueueOverflow(packetDropped)
[...]
attr recordingmode count
attr source packetDropReasonIsQueueOverflow(packetDropped)
attr title "packet drop: queue overflow, count"
scalar BLEKriptoAgi.receiverNode.wlan[0].mac packetDropQueueOverflow:sum(packetBytes) 0
attr interpolationmode none
attr recordingmode sum(packetBytes)
attr source packetDropReasonIsQueueOverflow(packetDropped)
attr title "packet drop: queue overflow, sum(packetBytes)"
scalar BLEKriptoAgi.receiverNode.wlan[0].mac packetDropRetryLimitReached:count 0
attr interpolationmode none
attr recordingmode count
attr source packetDropReasonIsRetryLimitReached(packetDropped)
attr title "packet drop: retry limit reached, count"
scalar BLEKriptoAgi.receiverNode.wlan[0].mac packetDropRetryLimitReached:sum(packetBytes) 0
attr interpolationmode none
attr recordingmode sum(packetBytes)
attr source packetDropReasonIsRetryLimitReached(packetDropped)
attr title "packet drop: retry limit reached, sum(packetBytes)"
scalar BLEKriptoAgi.receiverNode.wlan[0].mac packetDropBackoffLimitReached:count 0
attr interpolationmode none
attr recordingmode count
attr source packetDropReasonIsCongestion(packetDropped)
attr title "packet drop: backoff limit reached, count"
scalar BLEKriptoAgi.receiverNode.wlan[0].mac packetDropBackoffLimitReached:sum(packetBytes) 0
attr interpolationmode none
attr recordingmode sum(packetBytes)
attr source packetDropReasonIsCongestion(packetDropped)
attr title "packet drop: backoff limit reached, sum(packetBytes)"
scalar BLEKriptoAgi.receiverNode.wlan[0].mac linkBroken:count 0
attr interpolationmode none
attr recordingmode count
attr source linkBroken
attr title "link break, count"
par BLEKriptoAgi.receiverNode.wlan[0].radio.antenna typename "\"inet.physicallayer.wireless.common.antenna.IsotropicAntenna\""
par BLEKriptoAgi.receiverNode.wlan[0].radio.antenna mobilityModule "\"^.^.^.mobility\""
par BLEKriptoAgi.receiverNode.wlan[0].radio.antenna numAntennas 1
par BLEKriptoAgi.receiverNode.wlan[0].radio.transmitter typename "\"inet.physicallayer.wireless.ieee802154.packetlevel.Ieee802154NarrowbandScalarTransmitter\""
par BLEKriptoAgi.receiverNode.wlan[0].radio.transmitter preambleDuration 0.000128s
attr unit s
par BLEKriptoAgi.receiverNode.wlan[0].radio.transmitter headerLength 16b
attr unit b
par BLEKriptoAgi.receiverNode.wlan[0].radio.transmitter bitrate 250000bps
attr unit bps
par BLEKriptoAgi.receiverNode.wlan[0].radio.transmitter power 0.002W
attr unit W
par BLEKriptoAgi.receiverNode.wlan[0].radio.transmitter centerFrequency 2.45e+09Hz
attr unit Hz
par BLEKriptoAgi.receiverNode.wlan[0].radio.transmitter bandwidth 2.8e+06Hz
attr unit Hz
par BLEKriptoAgi.receiverNode.wlan[0].radio.transmitter codeRate 1
par BLEKriptoAgi.receiverNode.wlan[0].radio.transmitter modulation "\"DSSS-OQPSK-16\""
par BLEKriptoAgi.receiverNode.wlan[0].radio.receiver.errorModel typename "\"inet.physicallayer.wireless.apsk.packetlevel.errormodel.ApskErrorModel\""
par BLEKriptoAgi.receiverNode.wlan[0].radio.receiver.errorModel corruptionMode "\"packet\""
attr enum packet,chunk,byte,bit
par BLEKriptoAgi.receiverNode.wlan[0].radio.receiver.errorModel snirMode "\"min\""
attr enum min,mean
par BLEKriptoAgi.receiverNode.wlan[0].radio.receiver.errorModel snirOffset 0dB
attr unit dB
par BLEKriptoAgi.receiverNode.wlan[0].radio.receiver typename "\"inet.physicallayer.wireless.ieee802154.packetlevel.Ieee802154NarrowbandScalarReceiver\""
par BLEKriptoAgi.receiverNode.wlan[0].radio.receiver snirThreshold -8dB
attr unit dB
par BLEKriptoAgi.receiverNode.wlan[0].radio.receiver snirThresholdMode "\"min\""
attr enum min,mean
par BLEKriptoAgi.receiverNode.wlan[0].radio.receiver energyDetection -90dBm
attr unit dBm
par BLEKriptoAgi.receiverNode.wlan[0].radio.receiver sensitivity -85dBm
attr unit dBm
par BLEKriptoAgi.receiverNode.wlan[0].radio.receiver centerFrequency 2.45e+09Hz
attr unit Hz
par BLEKriptoAgi.receiverNode.wlan[0].radio.receiver bandwidth 2.8e+06Hz
attr unit Hz
par BLEKriptoAgi.receiverNode.wlan[0].radio.receiver modulation "\"DSSS-OQPSK-16\""
par BLEKriptoAgi.receiverNode.wlan[0].radio.receiver minInterferencePower -120dBm
attr unit dBm
par BLEKriptoAgi.receiverNode.wlan[0].radio typename "\"inet.physicallayer.wireless.ieee802154.packetlevel.Ieee802154NarrowbandScalarRadio\""
par BLEKriptoAgi.receiverNode.wlan[0].radio radioMediumModule "\"radioMedium\""
par BLEKriptoAgi.receiverNode.wlan[0].radio energySourceModule "\"\""
par BLEKriptoAgi.receiverNode.wlan[0].radio initialRadioMode "\"off\""
attr enum off,sleep,receiver,transmitter,transceiver
par BLEKriptoAgi.receiverNode.wlan[0].radio switchingTimes "\"ms 0 0 0 0 0 0 0 0 0 0 0 0 0 0 0 0 0 0 0 0 0 0 0 0 0\""
par BLEKriptoAgi.receiverNode.wlan[0].radio sendRawBytes false
par BLEKriptoAgi.receiverNode.wlan[0].radio separateTransmissionParts false
par BLEKriptoAgi.receiverNode.wlan[0].radio separateReceptionParts false
par BLEKriptoAgi.receiverNode.wlan[0].radio displayCommunicationRange false
par BLEKriptoAgi.receiverNode.wlan[0].radio displayInterferenceRange false
par BLEKriptoAgi.receiverNode.wlan[0].radio centerFrequency 2.45e+09Hz
attr unit Hz
par BLEKriptoAgi.receiverNode.wlan[0].radio bandwidth 2.8e+06Hz
attr unit Hz
par BLEKriptoAgi.receiverNode.wlan[0].radio signalAnalogRepresentation "\"scalar\""
attr enum scalar,dimensional
scalar BLEKriptoAgi.receiverNode.wlan[0].radio radioMode:count 11
attr interpolationmode sample-hold
attr recordingmode count
attr source radioModeChanged
attr title "Radio mode, count"
scalar BLEKriptoAgi.receiverNode.wlan[0].radio receptionState:count 833
attr interpolationmode sample-hold
attr recordingmode count
attr source receptionStateChanged
attr title "Radio reception state, count"
scalar BLEKriptoAgi.receiverNode.wlan[0].radio transmissionState:count 16
attr interpolationmode sample-hold
attr recordingmode count
attr source transmissionStateChanged
attr title "Radio transmission state, count"
statistic BLEKriptoAgi.receiverNode.wlan[0].radio minSnir:histogram
field count 205
field mean 474.08860117813
field stddev 0
field min 474.08860117813
field max 474.08860117813
field sum 97188.163241517
field sqrsum 46075800.362243
attr recordingmode histogram
attr source minimumSnir(packetSentToUpper)
attr title "Min SNIR"
bin	-inf	0
bin	473.58	0
bin	473.6	0
bin	473.62	0
bin	473.64	0
bin	473.66	0
bin	473.68	0
bin	473.7	0
bin	473.72	0
bin	473.74	0
bin	473.76	0
bin	473.78	0
bin	473.8	0
bin	473.82	0
bin	473.84	0
bin	473.86	0
bin	473.88	0
bin	473.9	0
bin	473.92	0
bin	473.94	0
bin	473.96	0
bin	473.98	0
bin	474	0
bin	474.02	0
bin	474.04	0
bin	474.06	0
bin	474.08	205
bin	474.1	0
bin	474.12	0
bin	474.14	0
bin	474.16	0
bin	474.18	0
bin	474.2	0
bin	474.22	0
bin	474.24	0
bin	474.26	0
bin	474.28	0
bin	474.3	0
bin	474.32	0
bin	474.34	0
bin	474.36	0
bin	474.38	0
bin	474.4	0
bin	474.42	0
bin	474.44	0
bin	474.46	0
bin	474.48	0
bin	474.5	0
bin	474.52	0
bin	474.54	0
bin	474.56	0
bin	474.58	0
bin	474.6	0
statistic BLEKriptoAgi.receiverNode.wlan[0].radio packetErrorRate:histogram
field count 205
field mean 0
field stddev 0
field min 0
field max 0
field sum 0
field sqrsum 0
attr recordingmode histogram
attr source packetErrorRate(packetSentToUpper)
attr title "Packet error rate"
bin	-inf	0
bin	-0.5	0
bin	-0.48	0
bin	-0.46	0
bin	-0.44	0
bin	-0.42	0
bin	-0.4	0
bin	-0.38	0
bin	-0.36	0
bin	-0.34	0
bin	-0.32	0
bin	-0.3	0
bin	-0.28	0
bin	-0.26	0
bin	-0.24	0
bin	-0.22	0
bin	-0.2	0
bin	-0.18	0
bin	-0.16	0
bin	-0.14	0
bin	-0.12	0
bin	-0.1	0
bin	-0.08	0
bin	-0.06	0
bin	-0.04	0
bin	-0.02	0
bin	0	205
bin	0.02	0
bin	0.04	0
bin	0.06	0
bin	0.08	0
bin	0.1	0
bin	0.12	0
bin	0.14	0
bin	0.16	0
bin	0.18	0
bin	0.2	0
bin	0.22	0
bin	0.24	0
bin	0.26	0
bin	0.28	0
bin	0.3	0
bin	0.32	0
bin	0.34	0
bin	0.36	0
bin	0.38	0
bin	0.4	0
bin	0.42	0
bin	0.44	0
bin	0.46	0
bin	0.48	0
bin	0.5	0
statistic BLEKriptoAgi.receiverNode.wlan[0].radio bitErrorRate:histogram
field count 205
field mean 0
field stddev 0
field min 0
field max 0
field sum 0
field sqrsum 0
attr recordingmode histogram
attr source bitErrorRate(packetSentToUpper)
attr title "Bit error rate"
bin	-inf	0
bin	-0.5	0
bin	-0.48	0
bin	-0.46	0
bin	-0.44	0
bin	-0.42	0
bin	-0.4	0
bin	-0.38	0
bin	-0.36	0
bin	-0.34	0
bin	-0.32	0
bin	-0.3	0
bin	-0.28	0
bin	-0.26	0
bin	-0.24	0
bin	-0.22	0
bin	-0.2	0
bin	-0.18	0
bin	-0.16	0
bin	-0.14	0
bin	-0.12	0
bin	-0.1	0
bin	-0.08	0
bin	-0.06	0
bin	-0.04	0
bin	-0.02	0
bin	0	205
bin	0.02	0
bin	0.04	0
bin	0.06	0
bin	0.08	0
bin	0.1	0
bin	0.12	0
bin	0.14	0
bin	0.16	0
bin	0.18	0
bin	0.2	0
bin	0.22	0
bin	0.24	0
bin	0.26	0
bin	0.28	0
bin	0.3	0
bin	0.32	0
bin	0.34	0
bin	0.36	0
bin	0.38	0
bin	0.4	0
bin	0.42	0
bin	0.44	0
bin	0.46	0
bin	0.48	0
bin	0.5	0
statistic BLEKriptoAgi.receiverNode.wlan[0].radio symbolErrorRate:histogram
field count 0
field mean -nan
field stddev -nan
field min -nan
field max -nan
field sum 0
field sqrsum 0
attr recordingmode histogram
attr source symbolErrorRate(packetSentToUpper)
attr title "Symbol error rate"
bin	-inf	0
bin	0	0
bin	1	0
par BLEKriptoAgi.receiverNode.wlan[0] typename "\"inet.linklayer.ieee802154.Ieee802154NarrowbandInterface\""
par BLEKriptoAgi.receiverNode.wlan[0] displayStringTextFormat "\"%a (%i)\\n%m\""
par BLEKriptoAgi.receiverNode.wlan[0] recordPcap false
par BLEKriptoAgi.receiverNode.wlan[0] numPcapRecorders 0
par BLEKriptoAgi.receiverNode.wlan[0] interfaceTableModule "\"BLEKriptoAgi.receiverNode.interfaceTable\""
par BLEKriptoAgi.receiverNode.wlan[0] energySourceModule "\"\""
scalar BLEKriptoAgi.receiverNode.wlan[0] packetDropInterfaceDown:count 0
attr interpolationmode none
attr recordingmode count
attr source packetDropReasonIsInterfaceDown(packetDropped)
attr title "packet drops: interface down, count"
scalar BLEKriptoAgi.receiverNode.wlan[0] packetDropInterfaceDown:sum(packetBytes) 0
attr interpolationmode none
attr recordingmode sum(packetBytes)
attr source packetDropReasonIsInterfaceDown(packetDropped)
attr title "packet drops: interface down, sum(packetBytes)"
scalar BLEKriptoAgi.receiverNode.wlan[0] packetDropNoCarrier:count 0
attr interpolationmode none
attr recordingmode count
attr source packetDropReasonIsNoCarrier(packetDropped)
attr title "packet drops: no carrier, count"
scalar BLEKriptoAgi.receiverNode.wlan[0] packetDropNoCarrier:sum(packetBytes) 0
attr interpolationmode none
attr recordingmode sum(packetBytes)
attr source packetDropReasonIsNoCarrier(packetDropped)
attr title "packet drops: no carrier, sum(packetBytes)"
par BLEKriptoAgi.receiverNode.ipv6.transportIn.channel typename "\"ned.IdealChannel\""
par BLEKriptoAgi.receiverNode.ipv6.up.out[0].channel typename "\"ned.IdealChannel\""
par BLEKriptoAgi.receiverNode.ipv6.ipv6.queueOut.channel typename "\"ned.IdealChannel\""
par BLEKriptoAgi.receiverNode.ipv6.ifIn.channel typename "\"ned.IdealChannel\""
par BLEKriptoAgi.receiverNode.ipv6.routingTable typename "\"inet.networklayer.ipv6.Ipv6RoutingTable\""
par BLEKriptoAgi.receiverNode.ipv6.routingTable interfaceTableModule "\"BLEKriptoAgi.receiverNode.interfaceTable\""
par BLEKriptoAgi.receiverNode.ipv6.routingTable ipv6TunnelingModule "\"BLEKriptoAgi.receiverNode.ipv6.iptunneling\""
par BLEKriptoAgi.receiverNode.ipv6.routingTable routes "<routingTable/> at content:1"
par BLEKriptoAgi.receiverNode.ipv6.routingTable forwarding false
par BLEKriptoAgi.receiverNode.ipv6.routingTable isRouter false
par BLEKriptoAgi.receiverNode.ipv6.routingTable multicastForwarding false
par BLEKriptoAgi.receiverNode.ipv6.routingTable useAdminDist false
par BLEKriptoAgi.receiverNode.ipv6.up typename "\"inet.common.MessageDispatcher\""
par BLEKriptoAgi.receiverNode.ipv6.up displayStringTextFormat "\"processed %p pk (%l)\""
par BLEKriptoAgi.receiverNode.ipv6.up forwardServiceRegistration true
par BLEKriptoAgi.receiverNode.ipv6.up forwardProtocolRegistration true
par BLEKriptoAgi.receiverNode.ipv6.icmpv6 typename "\"inet.networklayer.icmpv6.Icmpv6\""
par BLEKriptoAgi.receiverNode.ipv6.icmpv6 interfaceTableModule "\"BLEKriptoAgi.receiverNode.interfaceTable\""
par BLEKriptoAgi.receiverNode.ipv6.icmpv6 crcMode "\"declared\""
attr enum declared,computed
par BLEKriptoAgi.receiverNode.ipv6.lp typename "\"inet.common.MessageDispatcher\""
par BLEKriptoAgi.receiverNode.ipv6.lp displayStringTextFormat "\"processed %p pk (%l)\""
par BLEKriptoAgi.receiverNode.ipv6.lp forwardServiceRegistration true
par BLEKriptoAgi.receiverNode.ipv6.lp forwardProtocolRegistration true
par BLEKriptoAgi.receiverNode.ipv6.neighbourDiscovery typename "\"inet.networklayer.icmpv6.Ipv6NeighbourDiscovery\""
par BLEKriptoAgi.receiverNode.ipv6.neighbourDiscovery interfaceTableModule "\"BLEKriptoAgi.receiverNode.interfaceTable\""
par BLEKriptoAgi.receiverNode.ipv6.neighbourDiscovery crcMode "\"declared\""
attr enum declared,computed
par BLEKriptoAgi.receiverNode.ipv6.neighbourDiscovery icmpv6Module "\"BLEKriptoAgi.receiverNode.ipv6.icmpv6\""
par BLEKriptoAgi.receiverNode.ipv6.neighbourDiscovery xmipv6Module "\"\""
par BLEKriptoAgi.receiverNode.ipv6.neighbourDiscovery routingTableModule "\"BLEKriptoAgi.receiverNode.ipv6.routingTable\""
par BLEKriptoAgi.receiverNode.ipv6.neighbourDiscovery minIntervalBetweenRAs 0.03s
attr unit s
par BLEKriptoAgi.receiverNode.ipv6.neighbourDiscovery maxIntervalBetweenRAs 0.07s
attr unit s
scalar BLEKriptoAgi.receiverNode.ipv6.neighbourDiscovery startDad:count 1
attr recordingmode count
attr title "DAD started, count"
par BLEKriptoAgi.receiverNode.ipv6.ipv6 typename "\"inet.networklayer.ipv6.Ipv6\""
par BLEKriptoAgi.receiverNode.ipv6.ipv6 interfaceTableModule "\"BLEKriptoAgi.receiverNode.interfaceTable\""
par BLEKriptoAgi.receiverNode.ipv6.ipv6 routingTableModule "\"BLEKriptoAgi.receiverNode.ipv6.routingTable\""
par BLEKriptoAgi.receiverNode.ipv6.ipv6 ipv6NeighbourDiscoveryModule "\"BLEKriptoAgi.receiverNode.ipv6.neighbourDiscovery\""
par BLEKriptoAgi.receiverNode.ipv6.ipv6 icmpv6Module "\"BLEKriptoAgi.receiverNode.ipv6.icmpv6\""
par BLEKriptoAgi.receiverNode.ipv6.ipv6 ipv6TunnelingModule "\"BLEKriptoAgi.receiverNode.ipv6.iptunneling\""
par BLEKriptoAgi.receiverNode.ipv6.ipv6 procDelay 0s
attr unit s
par BLEKriptoAgi.receiverNode.ipv6.iptunneling typename "\"inet.networklayer.ipv6tunneling.Ipv6Tunneling\""
par BLEKriptoAgi.receiverNode.ipv6.iptunneling interfaceTableModule "\"BLEKriptoAgi.receiverNode.interfaceTable\""
par BLEKriptoAgi.receiverNode.ipv6.iptunneling routingTableModule "\"BLEKriptoAgi.receiverNode.ipv6.routingTable\""
par BLEKriptoAgi.receiverNode.ipv6.iptunneling xmipv6Module "\"\""
par BLEKriptoAgi.receiverNode.ipv6 typename "\"inet.networklayer.ipv6.Ipv6NetworkLayer\""
par BLEKriptoAgi.receiverNode.ipv6 xMIPv6Support false
par BLEKriptoAgi.receiverNode.ipv6 forwarding false
par BLEKriptoAgi.receiverNode.ipv6 multicastForwarding false
par BLEKriptoAgi.receiverNode.ipv6 interfaceTableModule "\"BLEKriptoAgi.receiverNode.interfaceTable\""
par BLEKriptoAgi.receiverNode.nl typename "\"inet.common.MessageDispatcher\""
par BLEKriptoAgi.receiverNode.nl displayStringTextFormat "\"processed %p pk (%l)\""
par BLEKriptoAgi.receiverNode.nl forwardServiceRegistration true
par BLEKriptoAgi.receiverNode.nl forwardProtocolRegistration true
par BLEKriptoAgi.receiverNode.udp typename "\"inet.transportlayer.udp.Udp\""
par BLEKriptoAgi.receiverNode.udp interfaceTableModule "\"BLEKriptoAgi.receiverNode.interfaceTable\""
par BLEKriptoAgi.receiverNode.udp icmpModule "\"^.ipv4.icmp\""
par BLEKriptoAgi.receiverNode.udp icmpv6Module "\"^.ipv6.icmpv6\""
par BLEKriptoAgi.receiverNode.udp crcMode "\"declared\""
attr enum disabled,declared,computed
par BLEKriptoAgi.receiverNode.udp defaultMulticastLoop true
scalar BLEKriptoAgi.receiverNode.udp packetReceived:count 0
attr interpolationmode none
attr recordingmode count
attr source packetReceived
attr title "packets received, count"
scalar BLEKriptoAgi.receiverNode.udp packetReceived:sum(packetBytes) 0
attr interpolationmode none
attr recordingmode sum(packetBytes)
attr source packetReceived
attr title "packets received, sum(packetBytes)"
scalar BLEKriptoAgi.receiverNode.udp packetSent:count 0
attr interpolationmode none
attr recordingmode count
attr source packetSent
attr title "packets sent, count"
scalar BLEKriptoAgi.receiverNode.udp packetSent:sum(packetBytes) 0
attr interpolationmode none
attr recordingmode sum(packetBytes)
attr source packetSent
attr title "packets sent, sum(packetBytes)"
scalar BLEKriptoAgi.receiverNode.udp passedUpPk:count 0
attr interpolationmode none
attr recordingmode count
attr source packetSentToUpper
attr title "packets passed up, count"
scalar BLEKriptoAgi.receiverNode.udp droppedPkWrongPort:count 0
attr interpolationmode none
attr recordingmode count
attr source packetDropReasonIsNoPortFound(packetDropped)
attr title "packets dropped (wrong port), count"
scalar BLEKriptoAgi.receiverNode.udp droppedPkBadChecksum:count 0
attr interpolationmode none
attr recordingmode count
attr source packetDropReasonIsIncorrectlyReceived(packetDropped)
attr title "packets dropped (checksum error), count"
par BLEKriptoAgi.receiverNode.tcp typename "\"inet.transportlayer.tcp.Tcp\""
par BLEKriptoAgi.receiverNode.tcp crcMode "\"declared\""
attr enum declared,computed
par BLEKriptoAgi.receiverNode.tcp advertisedWindow 7504
par BLEKriptoAgi.receiverNode.tcp delayedAcksEnabled false
par BLEKriptoAgi.receiverNode.tcp nagleEnabled true
par BLEKriptoAgi.receiverNode.tcp limitedTransmitEnabled false
par BLEKriptoAgi.receiverNode.tcp increasedIWEnabled false
par BLEKriptoAgi.receiverNode.tcp sackSupport false
par BLEKriptoAgi.receiverNode.tcp windowScalingSupport false
par BLEKriptoAgi.receiverNode.tcp windowScalingFactor -1
par BLEKriptoAgi.receiverNode.tcp timestampSupport false
par BLEKriptoAgi.receiverNode.tcp mss 536
par BLEKriptoAgi.receiverNode.tcp msl 120s
attr unit s
par BLEKriptoAgi.receiverNode.tcp tcpAlgorithmClass "\"TcpReno\""
par BLEKriptoAgi.receiverNode.tcp useDataNotification false
par BLEKriptoAgi.receiverNode.tcp dupthresh 3
par BLEKriptoAgi.receiverNode.tcp initialSsthresh 4294967295
par BLEKriptoAgi.receiverNode.tcp stopOperationExtraTime 0s
attr unit s
par BLEKriptoAgi.receiverNode.tcp stopOperationTimeout 2s
attr unit s
par BLEKriptoAgi.receiverNode.tcp ecnWillingness false
par BLEKriptoAgi.receiverNode.tcp dctcpGamma 0.0625
par BLEKriptoAgi.receiverNode.tn typename "\"inet.common.MessageDispatcher\""
par BLEKriptoAgi.receiverNode.tn displayStringTextFormat "\"processed %p pk (%l)\""
par BLEKriptoAgi.receiverNode.tn forwardServiceRegistration true
par BLEKriptoAgi.receiverNode.tn forwardProtocolRegistration true
par BLEKriptoAgi.receiverNode.at typename "\"inet.common.MessageDispatcher\""
par BLEKriptoAgi.receiverNode.at displayStringTextFormat "\"processed %p pk (%l)\""
par BLEKriptoAgi.receiverNode.at forwardServiceRegistration true
par BLEKriptoAgi.receiverNode.at forwardProtocolRegistration true
par BLEKriptoAgi.receiverNode typename "\"inet.node.inet.WirelessHost\""
par BLEKriptoAgi.receiverNode hasStatus false
par BLEKriptoAgi.receiverNode osgModel "\"\""
par BLEKriptoAgi.receiverNode osgModelColor "\"\""
par BLEKriptoAgi.receiverNode canvasImage "\"\""
par BLEKriptoAgi.receiverNode canvasImageColor "\"\""
par BLEKriptoAgi.receiverNode recordPcap false
par BLEKriptoAgi.receiverNode numPcapRecorders 0
par BLEKriptoAgi.receiverNode numLoInterfaces 1
par BLEKriptoAgi.receiverNode numWlanInterfaces 1
par BLEKriptoAgi.receiverNode numEthInterfaces 0
par BLEKriptoAgi.receiverNode numPppInterfaces 0
par BLEKriptoAgi.receiverNode numTunInterfaces 0
par BLEKriptoAgi.receiverNode numVirtInterfaces 0
par BLEKriptoAgi.receiverNode fcsMode "\"declared\""
attr enum declared,computed
par BLEKriptoAgi.receiverNode hasIpv4 false
par BLEKriptoAgi.receiverNode hasIpv6 true
par BLEKriptoAgi.receiverNode hasGn false
par BLEKriptoAgi.receiverNode forwarding false
par BLEKriptoAgi.receiverNode multicastForwarding false
par BLEKriptoAgi.receiverNode hasUdp true
par BLEKriptoAgi.receiverNode hasTcp true
par BLEKriptoAgi.receiverNode hasSctp false
par BLEKriptoAgi.receiverNode numApps 0
par BLEKriptoAgi typename "\"simulations.BLEKriptoAgi\""

