version 3
run RSA-0-20260408-11:08:59-2456
attr configname RSA
attr datetime 20260408-11:08:59
attr datetimef 20260408-110859
attr experiment RSA
attr inifile omnetpp.ini
attr iterationvars ""
attr iterationvarsd ""
attr iterationvarsf ""
attr measurement ""
attr network AdvancedSecurityNetwork
attr processid 2456
attr repetition 0
attr replication #0
attr resultdir results
attr runnumber 0
attr seedset 0
config description "RSA-2048 Sifrelemesi (Gecikme cok, Manipulasyon engellendi)"
config *.sensor.app[0].cryptoType "\"RSA\""
config *.sensor.app[0].packetSize 256B
config *.sensor.app[0].cryptoCpuDelay 50ms
config *.actuator.app[0].cryptoType "\"RSA\""
config *.actuator.app[0].cryptoCpuDelay 50ms
config network AdvancedSecurityNetwork
config ned-path .:/home/uzai/yga/omnet/inet/src
config sim-time-limit 100s
config output-scalar-file results/RSA-0.sca
config output-vector-file results/RSA-0.vec
config *.configurator.typename Ipv4NetworkConfigurator
config **.wlan[*].typename Ieee80211Interface
config **.wlan[*].mac.typename Ieee80211Mac
config **.wlan[*].radio.typename Ieee80211ScalarRadio
config **.wlan[*].mgmt.typename Ieee80211MgmtAdhoc
config **.wlan[*].agent.typename ""
config **.radioMedium.backgroundNoise.power -90dBm
config *.sensor.numApps 1
config *.sensor.app[0].typename SmartSensorApp
config *.sensor.app[0].localPort 4000
config *.sensor.app[0].destPort 5000
config *.sensor.app[0].destAddress "\"mitm\""
config *.sensor.app[0].sendInterval 1s
config *.sensor.app[0].senseDelay 5ms
config *.sensor.app[0].isActuator false
config *.mitm.numApps 1
config *.mitm.app[0].typename MitMApp
config *.mitm.app[0].localPort 5000
config *.mitm.app[0].destPort 6000
config *.mitm.app[0].destAddress "\"actuator\""
config *.actuator.numApps 1
config *.actuator.app[0].typename SmartSensorApp
config *.actuator.app[0].localPort 6000
config *.actuator.app[0].destPort 0
config *.actuator.app[0].destAddress "\"\""
config *.actuator.app[0].isActuator true
config *.actuator.app[0].actuateDelay 20ms

par AdvancedSecurityNetwork.configurator typename "\"inet.networklayer.configurator.ipv4.Ipv4NetworkConfigurator\""
par AdvancedSecurityNetwork.configurator minLinkWeight 0.001
par AdvancedSecurityNetwork.configurator configureIsolatedNetworksSeparatly false
par AdvancedSecurityNetwork.configurator config "<config>...</config> at content:1"
par AdvancedSecurityNetwork.configurator assignAddresses true
par AdvancedSecurityNetwork.configurator assignUniqueAddresses true
par AdvancedSecurityNetwork.configurator assignDisjunctSubnetAddresses true
par AdvancedSecurityNetwork.configurator addStaticRoutes true
par AdvancedSecurityNetwork.configurator addDefaultRoutes true
par AdvancedSecurityNetwork.configurator addSubnetRoutes true
par AdvancedSecurityNetwork.configurator addDirectRoutes true
par AdvancedSecurityNetwork.configurator optimizeRoutes true
par AdvancedSecurityNetwork.configurator dumpTopology false
par AdvancedSecurityNetwork.configurator dumpLinks false
par AdvancedSecurityNetwork.configurator dumpAddresses false
par AdvancedSecurityNetwork.configurator dumpRoutes false
par AdvancedSecurityNetwork.configurator dumpConfig "\"\""
par AdvancedSecurityNetwork.radioMedium.propagation typename "\"inet.physicallayer.wireless.common.propagation.ConstantSpeedPropagation\""
par AdvancedSecurityNetwork.radioMedium.propagation propagationSpeed 2.99792e+08mps
attr unit mps
par AdvancedSecurityNetwork.radioMedium.propagation ignoreMovementDuringTransmission true
par AdvancedSecurityNetwork.radioMedium.propagation ignoreMovementDuringPropagation true
par AdvancedSecurityNetwork.radioMedium.propagation ignoreMovementDuringReception true
scalar AdvancedSecurityNetwork.radioMedium.propagation "Arrival computation count" 16
par AdvancedSecurityNetwork.radioMedium.analogModel typename "\"inet.physicallayer.wireless.common.analogmodel.packetlevel.ScalarAnalogModel\""
par AdvancedSecurityNetwork.radioMedium.analogModel ignorePartialInterference false
par AdvancedSecurityNetwork.radioMedium.backgroundNoise typename "\"inet.physicallayer.wireless.common.backgroundnoise.IsotropicScalarBackgroundNoise\""
par AdvancedSecurityNetwork.radioMedium.backgroundNoise power -90dBm
attr unit dBm
par AdvancedSecurityNetwork.radioMedium.backgroundNoise bandwidth "nan Hz"
attr unit Hz
par AdvancedSecurityNetwork.radioMedium.pathLoss typename "\"inet.physicallayer.wireless.common.pathloss.FreeSpacePathLoss\""
par AdvancedSecurityNetwork.radioMedium.pathLoss alpha 2
par AdvancedSecurityNetwork.radioMedium.pathLoss systemLoss 0dB
attr unit dB
par AdvancedSecurityNetwork.radioMedium.mediumLimitCache typename "\"inet.physicallayer.wireless.common.medium.MediumLimitCache\""
par AdvancedSecurityNetwork.radioMedium.mediumLimitCache centerFrequency 2.4e+09Hz
attr unit Hz
par AdvancedSecurityNetwork.radioMedium.mediumLimitCache maxSpeed "nan mps"
attr unit mps
par AdvancedSecurityNetwork.radioMedium.mediumLimitCache maxTransmissionPower "nan W"
attr unit W
par AdvancedSecurityNetwork.radioMedium.mediumLimitCache minInterferencePower -110dBm
attr unit dBm
par AdvancedSecurityNetwork.radioMedium.mediumLimitCache minReceptionPower -85dBm
attr unit dBm
par AdvancedSecurityNetwork.radioMedium.mediumLimitCache maxAntennaGain 0dB
attr unit dB
par AdvancedSecurityNetwork.radioMedium.mediumLimitCache minInterferenceTime 1e-12s
attr unit s
par AdvancedSecurityNetwork.radioMedium.mediumLimitCache maxTransmissionDuration 0.01s
attr unit s
par AdvancedSecurityNetwork.radioMedium.mediumLimitCache maxCommunicationRange "nan m"
attr unit m
par AdvancedSecurityNetwork.radioMedium.mediumLimitCache maxInterferenceRange "nan m"
attr unit m
par AdvancedSecurityNetwork.radioMedium.communicationCache typename "\"inet.physicallayer.wireless.common.communicationcache.VectorCommunicationCache\""
par AdvancedSecurityNetwork.radioMedium typename "\"inet.physicallayer.wireless.ieee80211.packetlevel.Ieee80211ScalarRadioMedium\""
par AdvancedSecurityNetwork.radioMedium physicalEnvironmentModule "\"physicalEnvironment\""
par AdvancedSecurityNetwork.radioMedium signalAnalogRepresentation "\"scalar\""
attr enum unitDisk,scalar,dimensional
par AdvancedSecurityNetwork.radioMedium rangeFilter "\"\""
par AdvancedSecurityNetwork.radioMedium radioModeFilter false
par AdvancedSecurityNetwork.radioMedium listeningFilter false
par AdvancedSecurityNetwork.radioMedium macAddressFilter false
par AdvancedSecurityNetwork.radioMedium recordTransmissionLog false
par AdvancedSecurityNetwork.radioMedium recordReceptionLog false
scalar AdvancedSecurityNetwork.radioMedium "transmission count" 8
scalar AdvancedSecurityNetwork.radioMedium "signal send count" 16
scalar AdvancedSecurityNetwork.radioMedium "reception computation count" 16
scalar AdvancedSecurityNetwork.radioMedium "interference computation count" 62
scalar AdvancedSecurityNetwork.radioMedium "reception decision computation count" 16
scalar AdvancedSecurityNetwork.radioMedium "listening decision computation count" 30
scalar AdvancedSecurityNetwork.radioMedium "reception cache hit" 85.714285714286
attr unit %
scalar AdvancedSecurityNetwork.radioMedium "interference cache hit" 66.666666666667
attr unit %
scalar AdvancedSecurityNetwork.radioMedium "noise cache hit" 0
attr unit %
scalar AdvancedSecurityNetwork.radioMedium "snir cache hit" 50
attr unit %
scalar AdvancedSecurityNetwork.radioMedium "reception decision cache hit" 50
attr unit %
scalar AdvancedSecurityNetwork.radioMedium "reception result cache hit" 0
attr unit %
par AdvancedSecurityNetwork.sensor.radioIn[0].channel typename "\"ned.IdealChannel\""
par AdvancedSecurityNetwork.sensor.mobility typename "\"inet.mobility.static.StationaryMobility\""
par AdvancedSecurityNetwork.sensor.mobility subjectModule "\"^\""
par AdvancedSecurityNetwork.sensor.mobility coordinateSystemModule "\"\""
par AdvancedSecurityNetwork.sensor.mobility displayStringTextFormat "\"p: %p\\nv: %v\""
attr mutable ""
par AdvancedSecurityNetwork.sensor.mobility updateDisplayString true
par AdvancedSecurityNetwork.sensor.mobility constraintAreaMinX "-inf m"
attr unit m
par AdvancedSecurityNetwork.sensor.mobility constraintAreaMinY "-inf m"
attr unit m
par AdvancedSecurityNetwork.sensor.mobility constraintAreaMinZ "-inf m"
attr unit m
par AdvancedSecurityNetwork.sensor.mobility constraintAreaMaxX "inf m"
attr unit m
par AdvancedSecurityNetwork.sensor.mobility constraintAreaMaxY "inf m"
attr unit m
par AdvancedSecurityNetwork.sensor.mobility constraintAreaMaxZ "inf m"
attr unit m
par AdvancedSecurityNetwork.sensor.mobility initialX "nan m"
attr unit m
par AdvancedSecurityNetwork.sensor.mobility initialY "nan m"
attr unit m
par AdvancedSecurityNetwork.sensor.mobility initialZ 0m
attr unit m
par AdvancedSecurityNetwork.sensor.mobility initialLatitude "nan deg"
attr unit deg
par AdvancedSecurityNetwork.sensor.mobility initialLongitude "nan deg"
attr unit deg
par AdvancedSecurityNetwork.sensor.mobility initialAltitude 0m
attr unit m
par AdvancedSecurityNetwork.sensor.mobility initialHeading 0deg
attr unit deg
par AdvancedSecurityNetwork.sensor.mobility initialElevation 0deg
attr unit deg
par AdvancedSecurityNetwork.sensor.mobility initialBank 0deg
attr unit deg
par AdvancedSecurityNetwork.sensor.mobility initFromDisplayString true
par AdvancedSecurityNetwork.sensor.mobility updateFromDisplayString true
par AdvancedSecurityNetwork.sensor.interfaceTable typename "\"inet.networklayer.common.InterfaceTable\""
par AdvancedSecurityNetwork.sensor.interfaceTable displayAddresses false
par AdvancedSecurityNetwork.sensor.cb typename "\"inet.common.MessageDispatcher\""
par AdvancedSecurityNetwork.sensor.cb displayStringTextFormat "\"processed %p pk (%l)\""
par AdvancedSecurityNetwork.sensor.cb forwardServiceRegistration true
par AdvancedSecurityNetwork.sensor.cb forwardProtocolRegistration true
par AdvancedSecurityNetwork.sensor.bl typename "\"inet.common.MessageDispatcher\""
par AdvancedSecurityNetwork.sensor.bl displayStringTextFormat "\"processed %p pk (%l)\""
par AdvancedSecurityNetwork.sensor.bl forwardServiceRegistration true
par AdvancedSecurityNetwork.sensor.bl forwardProtocolRegistration true
par AdvancedSecurityNetwork.sensor.li typename "\"inet.common.MessageDispatcher\""
par AdvancedSecurityNetwork.sensor.li displayStringTextFormat "\"processed %p pk (%l)\""
par AdvancedSecurityNetwork.sensor.li forwardServiceRegistration true
par AdvancedSecurityNetwork.sensor.li forwardProtocolRegistration true
par AdvancedSecurityNetwork.sensor.lo[0].upperLayerIn.channel typename "\"ned.IdealChannel\""
par AdvancedSecurityNetwork.sensor.lo[0].lo.upperLayerOut.channel typename "\"ned.IdealChannel\""
par AdvancedSecurityNetwork.sensor.lo[0].lo typename "\"inet.linklayer.loopback.Loopback\""
par AdvancedSecurityNetwork.sensor.lo[0].lo interfaceTableModule "\"AdvancedSecurityNetwork.sensor.interfaceTable\""
par AdvancedSecurityNetwork.sensor.lo[0].lo mtu 4470B
attr unit B
scalar AdvancedSecurityNetwork.sensor.lo[0].lo rcvdPkFromHl:count 0
attr interpolationmode none
attr recordingmode count
attr source packetReceivedFromUpper
attr title "packets received from higher layer, count"
scalar AdvancedSecurityNetwork.sensor.lo[0].lo rcvdPkFromHl:sum(packetBytes) 0
attr interpolationmode none
attr recordingmode sum(packetBytes)
attr source packetReceivedFromUpper
attr title "packets received from higher layer, sum(packetBytes)"
scalar AdvancedSecurityNetwork.sensor.lo[0].lo passedUpPk:count 0
attr interpolationmode none
attr recordingmode count
attr source packetSentToUpper
attr title "packets passed to higher layer, count"
scalar AdvancedSecurityNetwork.sensor.lo[0].lo passedUpPk:sum(packetBytes) 0
attr interpolationmode none
attr recordingmode sum(packetBytes)
attr source packetSentToUpper
attr title "packets passed to higher layer, sum(packetBytes)"
par AdvancedSecurityNetwork.sensor.lo[0] typename "\"inet.linklayer.loopback.LoopbackInterface\""
par AdvancedSecurityNetwork.sensor.lo[0] displayStringTextFormat "\"%a (%i)\\n%m\""
par AdvancedSecurityNetwork.sensor.lo[0] recordPcap false
par AdvancedSecurityNetwork.sensor.lo[0] numPcapRecorders 0
par AdvancedSecurityNetwork.sensor.lo[0] interfaceTableModule "\"AdvancedSecurityNetwork.sensor.interfaceTable\""
scalar AdvancedSecurityNetwork.sensor.lo[0] packetDropInterfaceDown:count 0
attr interpolationmode none
attr recordingmode count
attr source packetDropReasonIsInterfaceDown(packetDropped)
attr title "packet drops: interface down, count"
scalar AdvancedSecurityNetwork.sensor.lo[0] packetDropInterfaceDown:sum(packetBytes) 0
attr interpolationmode none
attr recordingmode sum(packetBytes)
attr source packetDropReasonIsInterfaceDown(packetDropped)
attr title "packet drops: interface down, sum(packetBytes)"
scalar AdvancedSecurityNetwork.sensor.lo[0] packetDropNoCarrier:count 0
attr interpolationmode none
attr recordingmode count
attr source packetDropReasonIsNoCarrier(packetDropped)
attr title "packet drops: no carrier, count"
scalar AdvancedSecurityNetwork.sensor.lo[0] packetDropNoCarrier:sum(packetBytes) 0
attr interpolationmode none
attr recordingmode sum(packetBytes)
attr source packetDropReasonIsNoCarrier(packetDropped)
attr title "packet drops: no carrier, sum(packetBytes)"
par AdvancedSecurityNetwork.sensor.wlan[0].radioIn.channel typename "\"ned.IdealChannel\""
par AdvancedSecurityNetwork.sensor.wlan[0].llc.upperLayerOut.channel typename "\"ned.IdealChannel\""
par AdvancedSecurityNetwork.sensor.wlan[0].upperLayerIn.channel typename "\"ned.IdealChannel\""
par AdvancedSecurityNetwork.sensor.wlan[0].mib typename "\"inet.linklayer.ieee80211.mib.Ieee80211Mib\""
par AdvancedSecurityNetwork.sensor.wlan[0].llc typename "\"inet.linklayer.ieee80211.llc.Ieee80211LlcLpd\""
par AdvancedSecurityNetwork.sensor.wlan[0].llc registerProtocol false
par AdvancedSecurityNetwork.sensor.wlan[0].mgmt typename "\"inet.linklayer.ieee80211.mgmt.Ieee80211MgmtAdhoc\""
par AdvancedSecurityNetwork.sensor.wlan[0].mgmt mibModule "\"AdvancedSecurityNetwork.sensor.wlan[0].mib\""
par AdvancedSecurityNetwork.sensor.wlan[0].mgmt macModule "\"AdvancedSecurityNetwork.sensor.wlan[0].mac\""
par AdvancedSecurityNetwork.sensor.wlan[0].mgmt interfaceTableModule "\"AdvancedSecurityNetwork.sensor.interfaceTable\""
par AdvancedSecurityNetwork.sensor.wlan[0].mac.dcf.channelAccess.pendingQueue typename "\"inet.linklayer.ieee80211.mac.queue.PendingQueue\""
par AdvancedSecurityNetwork.sensor.wlan[0].mac.dcf.channelAccess.pendingQueue displayStringTextFormat "\"contains %p pk (%l) pushed %u\\npulled %o removed %r dropped %d\""
par AdvancedSecurityNetwork.sensor.wlan[0].mac.dcf.channelAccess.pendingQueue packetCapacity 100
par AdvancedSecurityNetwork.sensor.wlan[0].mac.dcf.channelAccess.pendingQueue dataCapacity -1b
attr unit b
par AdvancedSecurityNetwork.sensor.wlan[0].mac.dcf.channelAccess.pendingQueue dropperClass "\"inet::queueing::PacketAtCollectionEndDropper\""
par AdvancedSecurityNetwork.sensor.wlan[0].mac.dcf.channelAccess.pendingQueue comparatorClass "\"inet::ieee80211::MgmtOverDataComparator\""
par AdvancedSecurityNetwork.sensor.wlan[0].mac.dcf.channelAccess.pendingQueue bufferModule "\"\""
scalar AdvancedSecurityNetwork.sensor.wlan[0].mac.dcf.channelAccess.pendingQueue queueLength:last 0
attr autoWarmupFilter false
attr interpolationmode sample-hold
attr recordingmode last
attr source "warmup(atomic(constant0(packetPushEnded) + count(packetPushStarted) - count(packetPulled) - count(packetRemoved) - count(packetDropped)))"
attr title "queue length, last"
attr unit pk
scalar AdvancedSecurityNetwork.sensor.wlan[0].mac.dcf.channelAccess.pendingQueue queueLength:max 1
attr autoWarmupFilter false
attr interpolationmode sample-hold
attr recordingmode max
attr source "warmup(atomic(constant0(packetPushEnded) + count(packetPushStarted) - count(packetPulled) - count(packetRemoved) - count(packetDropped)))"
attr title "queue length, max"
attr unit pk
scalar AdvancedSecurityNetwork.sensor.wlan[0].mac.dcf.channelAccess.pendingQueue queueLength:timeavg 0.28557174603851
attr autoWarmupFilter false
attr interpolationmode sample-hold
attr recordingmode timeavg
attr source "warmup(atomic(constant0(packetPushEnded) + count(packetPushStarted) - count(packetPulled) - count(packetRemoved) - count(packetDropped)))"
attr title "queue length, timeavg"
attr unit pk
scalar AdvancedSecurityNetwork.sensor.wlan[0].mac.dcf.channelAccess.pendingQueue queueBitLength:last 0
attr autoWarmupFilter false
attr interpolationmode sample-hold
attr recordingmode last
attr source "warmup(atomic(constant0(packetPushEnded) + sum(packetLength(packetPushStarted)) - sum(packetLength(packetPulled)) - sum(packetLength(packetRemoved)) - sum(packetLength(packetDropped))))"
attr title "queue bit length, last"
attr unit b
scalar AdvancedSecurityNetwork.sensor.wlan[0].mac.dcf.channelAccess.pendingQueue queueBitLength:max 2560
attr autoWarmupFilter false
attr interpolationmode sample-hold
attr recordingmode max
attr source "warmup(atomic(constant0(packetPushEnded) + sum(packetLength(packetPushStarted)) - sum(packetLength(packetPulled)) - sum(packetLength(packetRemoved)) - sum(packetLength(packetDropped))))"
attr title "queue bit length, max"
attr unit b
scalar AdvancedSecurityNetwork.sensor.wlan[0].mac.dcf.channelAccess.pendingQueue queueBitLength:timeavg 731.06366985859
attr autoWarmupFilter false
attr interpolationmode sample-hold
attr recordingmode timeavg
attr source "warmup(atomic(constant0(packetPushEnded) + sum(packetLength(packetPushStarted)) - sum(packetLength(packetPulled)) - sum(packetLength(packetRemoved)) - sum(packetLength(packetDropped))))"
attr title "queue bit length, timeavg"
attr unit b
statistic AdvancedSecurityNetwork.sensor.wlan[0].mac.dcf.channelAccess.pendingQueue queueingTime:histogram
field count 2
field mean 0.000287
field stddev 0.00040587929240108
field min 0
field max 0.000574
field sum 0.000574
field sqrsum 3.29476e-07
attr interpolationmode none
attr recordingmode histogram
attr source queueingTime(packetPulled)
attr title "queueing times"
attr unit s
bin	-inf	0
bin	0	1
bin	1e-05	0
bin	2e-05	0
bin	3e-05	0
bin	4e-05	0
bin	5e-05	0
bin	6e-05	0
bin	7e-05	0
bin	8e-05	0
bin	9e-05	0
bin	0.0001	0
bin	0.00011	0
bin	0.00012	0
bin	0.00013	0
bin	0.00014	0
bin	0.00015	0
bin	0.00016	0
bin	0.00017	0
bin	0.00018	0
bin	0.00019	0
bin	0.0002	0
bin	0.00021	0
bin	0.00022	0
bin	0.00023	0
bin	0.00024	0
bin	0.00025	0
bin	0.00026	0
bin	0.00027	0
bin	0.00028	0
bin	0.00029	0
bin	0.0003	0
bin	0.00031	0
bin	0.00032	0
bin	0.00033	0
bin	0.00034	0
bin	0.00035	0
bin	0.00036	0
bin	0.00037	0
bin	0.00038	0
bin	0.00039	0
bin	0.0004	0
bin	0.00041	0
bin	0.00042	0
bin	0.00043	0
bin	0.00044	0
bin	0.00045	0
bin	0.00046	0
bin	0.00047	0
bin	0.00048	0
bin	0.00049	0
bin	0.0005	0
bin	0.00051	0
bin	0.00052	0
bin	0.00053	0
bin	0.00054	0
bin	0.00055	0
bin	0.00056	0
bin	0.00057	1
bin	0.00058	0
bin	0.00059	0
bin	0.0006	0
bin	0.00061	0
bin	0.00062	0
bin	0.00063	0
bin	0.00064	0
bin	0.00065	0
bin	0.00066	0
bin	0.00067	0
bin	0.00068	0
bin	0.00069	0
bin	0.0007	0
bin	0.00071	0
bin	0.00072	0
scalar AdvancedSecurityNetwork.sensor.wlan[0].mac.dcf.channelAccess.pendingQueue outgoingPackets:count 2
attr recordingmode count
attr source packetPulled
attr title "outgoing packets, count"
attr unit pk
scalar AdvancedSecurityNetwork.sensor.wlan[0].mac.dcf.channelAccess.pendingQueue outgoingPacketLengths:sum 3072
attr interpolationmode none
attr recordingmode sum
attr source packetLength(packetPulled)
attr title "outgoing packet lengths, sum"
attr unit b
statistic AdvancedSecurityNetwork.sensor.wlan[0].mac.dcf.channelAccess.pendingQueue outgoingPacketLengths:histogram
field count 2
field mean 1536
field stddev 1448.15468787
field min 512
field max 2560
field sum 3072
field sqrsum 6815744
attr interpolationmode none
attr recordingmode histogram
attr source packetLength(packetPulled)
attr title "outgoing packet lengths"
attr unit b
bin	-inf	0
bin	0	0
bin	50	0
bin	100	0
bin	150	0
bin	200	0
bin	250	0
bin	300	0
bin	350	0
bin	400	0
bin	450	0
bin	500	1
bin	550	0
bin	600	0
bin	650	0
bin	700	0
bin	750	0
bin	800	0
bin	850	0
bin	900	0
bin	950	0
bin	1000	0
bin	1050	0
bin	1100	0
bin	1150	0
bin	1200	0
bin	1250	0
bin	1300	0
bin	1350	0
bin	1400	0
bin	1450	0
bin	1500	0
bin	1550	0
bin	1600	0
bin	1650	0
bin	1700	0
bin	1750	0
bin	1800	0
bin	1850	0
bin	1900	0
bin	1950	0
bin	2000	0
bin	2050	0
bin	2100	0
bin	2150	0
bin	2200	0
bin	2250	0
bin	2300	0
bin	2350	0
bin	2400	0
bin	2450	0
bin	2500	0
bin	2550	1
bin	2600	0
bin	2650	0
bin	2700	0
bin	2750	0
bin	2800	0
bin	2850	0
bin	2900	0
bin	2950	0
bin	3000	0
bin	3050	0
bin	3100	0
statistic AdvancedSecurityNetwork.sensor.wlan[0].mac.dcf.channelAccess.pendingQueue flowQueueingTime:histogram
field count 0
field mean -nan
field stddev -nan
field min -nan
field max -nan
field sum 0
field sqrsum 0
attr interpolationmode none
attr recordingmode histogram
attr source queueingTime(demuxFlow(packetPulled))
attr title "flow queueing times"
attr unit s
bin	-inf	0
bin	0	0
bin	1	0
scalar AdvancedSecurityNetwork.sensor.wlan[0].mac.dcf.channelAccess.pendingQueue incomingPackets:count 2
attr recordingmode count
attr source packetPushStarted
attr title "incoming packets, count"
attr unit pk
scalar AdvancedSecurityNetwork.sensor.wlan[0].mac.dcf.channelAccess.pendingQueue incomingPacketLengths:sum 3072
attr interpolationmode none
attr recordingmode sum
attr source packetLength(packetPushStarted)
attr title "incoming packet lengths, sum"
attr unit b
statistic AdvancedSecurityNetwork.sensor.wlan[0].mac.dcf.channelAccess.pendingQueue incomingPacketLengths:histogram
field count 2
field mean 1536
field stddev 1448.15468787
field min 512
field max 2560
field sum 3072
field sqrsum 6815744
attr interpolationmode none
attr recordingmode histogram
attr source packetLength(packetPushStarted)
attr title "incoming packet lengths"
attr unit b
bin	-inf	0
bin	0	0
bin	50	0
bin	100	0
bin	150	0
bin	200	0
bin	250	0
bin	300	0
bin	350	0
bin	400	0
bin	450	0
bin	500	1
bin	550	0
bin	600	0
bin	650	0
bin	700	0
bin	750	0
bin	800	0
bin	850	0
bin	900	0
bin	950	0
bin	1000	0
bin	1050	0
bin	1100	0
bin	1150	0
bin	1200	0
bin	1250	0
bin	1300	0
bin	1350	0
bin	1400	0
bin	1450	0
bin	1500	0
bin	1550	0
bin	1600	0
bin	1650	0
bin	1700	0
bin	1750	0
bin	1800	0
bin	1850	0
bin	1900	0
bin	1950	0
bin	2000	0
bin	2050	0
bin	2100	0
bin	2150	0
bin	2200	0
bin	2250	0
bin	2300	0
bin	2350	0
bin	2400	0
bin	2450	0
bin	2500	0
bin	2550	1
bin	2600	0
bin	2650	0
bin	2700	0
bin	2750	0
bin	2800	0
bin	2850	0
bin	2900	0
bin	2950	0
bin	3000	0
bin	3050	0
bin	3100	0
scalar AdvancedSecurityNetwork.sensor.wlan[0].mac.dcf.channelAccess.pendingQueue droppedPacketsQueueOverflow:count 0
attr interpolationmode none
attr recordingmode count
attr source packetDropReasonIsQueueOverflow(packetDropped)
attr title "dropped packets: queue overflow, count"
attr unit pk
scalar AdvancedSecurityNetwork.sensor.wlan[0].mac.dcf.channelAccess.pendingQueue droppedPacketLengthsQueueOverflow:sum 0
attr interpolationmode none
attr recordingmode sum
attr source packetLength(packetDropReasonIsQueueOverflow(packetDropped))
attr title "dropped packet lengths: queue overflow, sum"
attr unit b
par AdvancedSecurityNetwork.sensor.wlan[0].mac.dcf.channelAccess.inProgressFrames typename "\"inet.linklayer.ieee80211.mac.queue.InProgressFrames\""
par AdvancedSecurityNetwork.sensor.wlan[0].mac.dcf.channelAccess.inProgressFrames pendingQueueModule "\"^.pendingQueue\""
par AdvancedSecurityNetwork.sensor.wlan[0].mac.dcf.channelAccess.inProgressFrames originatorMacDataServiceModule "\"^.^.originatorMacDataService\""
par AdvancedSecurityNetwork.sensor.wlan[0].mac.dcf.channelAccess.inProgressFrames ackHandlerModule "\"^.^.ackHandler\""
statistic AdvancedSecurityNetwork.sensor.wlan[0].mac.dcf.channelAccess.inProgressFrames queueingTime:histogram
field count 2
field mean 0.000114667128
field stddev 9.1453129457317e-05
field min 5e-05
field max 0.000179334256
field sum 0.000229334256
field sqrsum 3.4660775375074e-08
attr interpolationmode none
attr recordingmode histogram
attr source queueingTime(packetDequeued)
attr title "queueing times"
bin	-inf	0
bin	1.6e-05	0
bin	1.8e-05	0
bin	2e-05	0
bin	2.2e-05	0
bin	2.4e-05	0
bin	2.6e-05	0
bin	2.8e-05	0
bin	3e-05	0
bin	3.2e-05	0
bin	3.4e-05	0
bin	3.6e-05	0
bin	3.8e-05	0
bin	4e-05	0
bin	4.2e-05	0
bin	4.4e-05	0
bin	4.6e-05	0
bin	4.8e-05	1
bin	5e-05	0
bin	5.2e-05	0
bin	5.4e-05	0
bin	5.6e-05	0
bin	5.8e-05	0
bin	6e-05	0
bin	6.2e-05	0
bin	6.4e-05	0
bin	6.6e-05	0
bin	6.8e-05	0
bin	7e-05	0
bin	7.2e-05	0
bin	7.4e-05	0
bin	7.6e-05	0
bin	7.8e-05	0
bin	8e-05	0
bin	8.2e-05	0
bin	8.4e-05	0
bin	8.6e-05	0
bin	8.8e-05	0
bin	9e-05	0
bin	9.2e-05	0
bin	9.4e-05	0
bin	9.6e-05	0
bin	9.8e-05	0
bin	0.0001	0
bin	0.000102	0
bin	0.000104	0
bin	0.000106	0
bin	0.000108	0
bin	0.00011	0
bin	0.000112	0
bin	0.000114	0
bin	0.000116	0
bin	0.000118	0
bin	0.00012	0
bin	0.000122	0
bin	0.000124	0
bin	0.000126	0
bin	0.000128	0
bin	0.00013	0
bin	0.000132	0
bin	0.000134	0
bin	0.000136	0
bin	0.000138	0
bin	0.00014	0
bin	0.000142	0
bin	0.000144	0
bin	0.000146	0
bin	0.000148	0
bin	0.00015	0
bin	0.000152	0
bin	0.000154	0
bin	0.000156	0
bin	0.000158	0
bin	0.00016	0
bin	0.000162	0
bin	0.000164	0
bin	0.000166	0
bin	0.000168	0
bin	0.00017	0
bin	0.000172	0
bin	0.000174	0
bin	0.000176	0
bin	0.000178	1
bin	0.00018	0
bin	0.000182	0
bin	0.000184	0
bin	0.000186	0
bin	0.000188	0
bin	0.00019	0
bin	0.000192	0
bin	0.000194	0
bin	0.000196	0
bin	0.000198	0
bin	0.0002	0
bin	0.000202	0
bin	0.000204	0
bin	0.000206	0
bin	0.000208	0
bin	0.00021	0
bin	0.000212	0
scalar AdvancedSecurityNetwork.sensor.wlan[0].mac.dcf.channelAccess.inProgressFrames queueLength:max 1
attr autoWarmupFilter false
attr interpolationmode sample-hold
attr recordingmode max
attr source "warmup(count(packetEnqueued) - count(packetDequeued))"
attr title "queue length, max"
scalar AdvancedSecurityNetwork.sensor.wlan[0].mac.dcf.channelAccess.inProgressFrames queueLength:timeavg 3.8209575774488e-05
attr autoWarmupFilter false
attr interpolationmode sample-hold
attr recordingmode timeavg
attr source "warmup(count(packetEnqueued) - count(packetDequeued))"
attr title "queue length, timeavg"
par AdvancedSecurityNetwork.sensor.wlan[0].mac.dcf.channelAccess.contention typename "\"inet.linklayer.ieee80211.mac.contention.Contention\""
par AdvancedSecurityNetwork.sensor.wlan[0].mac.dcf.channelAccess.contention initialChannelBusy true
par AdvancedSecurityNetwork.sensor.wlan[0].mac.dcf.channelAccess.contention backoffOptimization true
scalar AdvancedSecurityNetwork.sensor.wlan[0].mac.dcf.channelAccess.contention channelAccessGranted:count 2
attr recordingmode count
attr title "channel access granted, count"
scalar AdvancedSecurityNetwork.sensor.wlan[0].mac.dcf.channelAccess.contention stateChanged:count 40
attr enum IDLE,DEFER,IFS_AND_BACKOFF
attr interpolationmode none
attr recordingmode count
attr title "contention state changed, count"
attr type enum
par AdvancedSecurityNetwork.sensor.wlan[0].mac.dcf.channelAccess typename "\"inet.linklayer.ieee80211.mac.channelaccess.Dcaf\""
par AdvancedSecurityNetwork.sensor.wlan[0].mac.dcf.channelAccess difsn -1
par AdvancedSecurityNetwork.sensor.wlan[0].mac.dcf.channelAccess cwMin -1
par AdvancedSecurityNetwork.sensor.wlan[0].mac.dcf.channelAccess cwMax -1
par AdvancedSecurityNetwork.sensor.wlan[0].mac.dcf.channelAccess rxModule "\"^.^.rx\""
scalar AdvancedSecurityNetwork.sensor.wlan[0].mac.dcf.channelAccess channelOwnershipChanged:count 4
attr interpolationmode sample-hold
attr recordingmode count
attr title "channel ownership, count"
par AdvancedSecurityNetwork.sensor.wlan[0].mac.dcf.originatorMacDataService.fragmentationPolicy typename "\"inet.linklayer.ieee80211.mac.fragmentation.BasicFragmentationPolicy\""
par AdvancedSecurityNetwork.sensor.wlan[0].mac.dcf.originatorMacDataService.fragmentationPolicy fragmentationThreshold 1500B
attr unit B
par AdvancedSecurityNetwork.sensor.wlan[0].mac.dcf.originatorMacDataService typename "\"inet.linklayer.ieee80211.mac.originator.OriginatorMacDataService\""
scalar AdvancedSecurityNetwork.sensor.wlan[0].mac.dcf.originatorMacDataService packetAggregated:count 0
attr recordingmode count
attr title "packets aggregated, count"
scalar AdvancedSecurityNetwork.sensor.wlan[0].mac.dcf.originatorMacDataService packetFragmented:count 0
attr recordingmode count
attr title "packets fragmented, count"
par AdvancedSecurityNetwork.sensor.wlan[0].mac.dcf.recipientMacDataService typename "\"inet.linklayer.ieee80211.mac.recipient.RecipientMacDataService\""
scalar AdvancedSecurityNetwork.sensor.wlan[0].mac.dcf.recipientMacDataService packetDeaggregated:count 0
attr recordingmode count
attr title "packets deaggregated, count"
scalar AdvancedSecurityNetwork.sensor.wlan[0].mac.dcf.recipientMacDataService packetDefragmented:count 2
attr recordingmode count
attr title "packets defragmented, count"
scalar AdvancedSecurityNetwork.sensor.wlan[0].mac.dcf.recipientMacDataService packetDropDuplicateDetected:count 0
attr interpolationmode none
attr recordingmode count
attr source packetDropReasonIsDuplicateDetected(packetDropped)
attr title "packet drops: duplicate detected, count"
scalar AdvancedSecurityNetwork.sensor.wlan[0].mac.dcf.recipientMacDataService packetDropDuplicateDetected:sum(packetBytes) 0
attr interpolationmode none
attr recordingmode sum(packetBytes)
attr source packetDropReasonIsDuplicateDetected(packetDropped)
attr title "packet drops: duplicate detected, sum(packetBytes)"
par AdvancedSecurityNetwork.sensor.wlan[0].mac.dcf.rateSelection typename "\"inet.linklayer.ieee80211.mac.rateselection.RateSelection\""
par AdvancedSecurityNetwork.sensor.wlan[0].mac.dcf.rateSelection rateControlModule "\"^.rateControl\""
par AdvancedSecurityNetwork.sensor.wlan[0].mac.dcf.rateSelection multicastFrameBitrate -1bps
attr unit bps
par AdvancedSecurityNetwork.sensor.wlan[0].mac.dcf.rateSelection responseAckFrameBitrate -1bps
attr unit bps
par AdvancedSecurityNetwork.sensor.wlan[0].mac.dcf.rateSelection responseCtsFrameBitrate -1bps
attr unit bps
par AdvancedSecurityNetwork.sensor.wlan[0].mac.dcf.rateSelection dataFrameBitrate -1bps
attr unit bps
par AdvancedSecurityNetwork.sensor.wlan[0].mac.dcf.rateSelection dataFrameBandwidth "nan Hz"
attr unit Hz
par AdvancedSecurityNetwork.sensor.wlan[0].mac.dcf.rateSelection dataFrameNumSpatialStreams -1
par AdvancedSecurityNetwork.sensor.wlan[0].mac.dcf.rateSelection mgmtFrameBitrate -1bps
attr unit bps
par AdvancedSecurityNetwork.sensor.wlan[0].mac.dcf.rateSelection controlFrameBitrate -1bps
attr unit bps
par AdvancedSecurityNetwork.sensor.wlan[0].mac.dcf.recoveryProcedure typename "\"inet.linklayer.ieee80211.mac.originator.NonQosRecoveryProcedure\""
par AdvancedSecurityNetwork.sensor.wlan[0].mac.dcf.recoveryProcedure cwCalculatorModule "\"^.channelAccess\""
par AdvancedSecurityNetwork.sensor.wlan[0].mac.dcf.recoveryProcedure rtsPolicyModule "\"^.rtsPolicy\""
par AdvancedSecurityNetwork.sensor.wlan[0].mac.dcf.recoveryProcedure shortRetryLimit 7
par AdvancedSecurityNetwork.sensor.wlan[0].mac.dcf.recoveryProcedure longRetryLimit 4
scalar AdvancedSecurityNetwork.sensor.wlan[0].mac.dcf.recoveryProcedure retryLimitReached:count 0
attr recordingmode count
attr title "retry limit reached, count"
par AdvancedSecurityNetwork.sensor.wlan[0].mac.dcf.originatorProtectionMechanism typename "\"inet.linklayer.ieee80211.mac.protectionmechanism.OriginatorProtectionMechanism\""
par AdvancedSecurityNetwork.sensor.wlan[0].mac.dcf.originatorProtectionMechanism rateSelectionModule "\"^.rateSelection\""
par AdvancedSecurityNetwork.sensor.wlan[0].mac.dcf.ackHandler typename "\"inet.linklayer.ieee80211.mac.originator.AckHandler\""
par AdvancedSecurityNetwork.sensor.wlan[0].mac.dcf.originatorAckPolicy typename "\"inet.linklayer.ieee80211.mac.originator.OriginatorAckPolicy\""
par AdvancedSecurityNetwork.sensor.wlan[0].mac.dcf.originatorAckPolicy rateSelectionModule "\"^.rateSelection\""
par AdvancedSecurityNetwork.sensor.wlan[0].mac.dcf.originatorAckPolicy ackTimeout -1s
attr unit s
par AdvancedSecurityNetwork.sensor.wlan[0].mac.dcf.recipientAckPolicy typename "\"inet.linklayer.ieee80211.mac.recipient.RecipientAckPolicy\""
par AdvancedSecurityNetwork.sensor.wlan[0].mac.dcf.recipientAckPolicy rateSelectionModule "\"^.rateSelection\""
par AdvancedSecurityNetwork.sensor.wlan[0].mac.dcf.rtsPolicy typename "\"inet.linklayer.ieee80211.mac.originator.RtsPolicy\""
par AdvancedSecurityNetwork.sensor.wlan[0].mac.dcf.rtsPolicy rateSelectionModule "\"^.rateSelection\""
par AdvancedSecurityNetwork.sensor.wlan[0].mac.dcf.rtsPolicy ctsTimeout -1s
attr unit s
par AdvancedSecurityNetwork.sensor.wlan[0].mac.dcf.rtsPolicy rtsThreshold 2346B
attr unit B
par AdvancedSecurityNetwork.sensor.wlan[0].mac.dcf.ctsPolicy typename "\"inet.linklayer.ieee80211.mac.recipient.CtsPolicy\""
par AdvancedSecurityNetwork.sensor.wlan[0].mac.dcf.ctsPolicy rxModule "\"^.^.rx\""
par AdvancedSecurityNetwork.sensor.wlan[0].mac.dcf.ctsPolicy rateSelectionModule "\"^.rateSelection\""
par AdvancedSecurityNetwork.sensor.wlan[0].mac.dcf typename "\"inet.linklayer.ieee80211.mac.coordinationfunction.Dcf\""
par AdvancedSecurityNetwork.sensor.wlan[0].mac.dcf rxModule "\"^.rx\""
par AdvancedSecurityNetwork.sensor.wlan[0].mac.dcf txModule "\"^.tx\""
scalar AdvancedSecurityNetwork.sensor.wlan[0].mac.dcf frameSequenceFinished:count 2
attr recordingmode count
attr title "finished frame sequences, count"
statistic AdvancedSecurityNetwork.sensor.wlan[0].mac.dcf frameSequenceDuration:histogram
field count 2
field mean 0.000114667128
field stddev 9.1453129457317e-05
field min 5e-05
field max 0.000179334256
field sum 0.000229334256
field sqrsum 3.4660775375074e-08
attr recordingmode histogram
attr source frameSequenceDuration(frameSequenceFinished)
attr title "frame sequence durations"
bin	-inf	0
bin	1.6e-05	0
bin	1.8e-05	0
bin	2e-05	0
bin	2.2e-05	0
bin	2.4e-05	0
bin	2.6e-05	0
bin	2.8e-05	0
bin	3e-05	0
bin	3.2e-05	0
bin	3.4e-05	0
bin	3.6e-05	0
bin	3.8e-05	0
bin	4e-05	0
bin	4.2e-05	0
bin	4.4e-05	0
bin	4.6e-05	0
bin	4.8e-05	1
bin	5e-05	0
bin	5.2e-05	0
bin	5.4e-05	0
bin	5.6e-05	0
bin	5.8e-05	0
bin	6e-05	0
bin	6.2e-05	0
bin	6.4e-05	0
bin	6.6e-05	0
bin	6.8e-05	0
bin	7e-05	0
bin	7.2e-05	0
bin	7.4e-05	0
bin	7.6e-05	0
bin	7.8e-05	0
bin	8e-05	0
bin	8.2e-05	0
bin	8.4e-05	0
bin	8.6e-05	0
bin	8.8e-05	0
bin	9e-05	0
bin	9.2e-05	0
bin	9.4e-05	0
bin	9.6e-05	0
bin	9.8e-05	0
bin	0.0001	0
bin	0.000102	0
bin	0.000104	0
bin	0.000106	0
bin	0.000108	0
bin	0.00011	0
bin	0.000112	0
bin	0.000114	0
bin	0.000116	0
bin	0.000118	0
bin	0.00012	0
bin	0.000122	0
bin	0.000124	0
bin	0.000126	0
bin	0.000128	0
bin	0.00013	0
bin	0.000132	0
bin	0.000134	0
bin	0.000136	0
bin	0.000138	0
bin	0.00014	0
bin	0.000142	0
bin	0.000144	0
bin	0.000146	0
bin	0.000148	0
bin	0.00015	0
bin	0.000152	0
bin	0.000154	0
bin	0.000156	0
bin	0.000158	0
bin	0.00016	0
bin	0.000162	0
bin	0.000164	0
bin	0.000166	0
bin	0.000168	0
bin	0.00017	0
bin	0.000172	0
bin	0.000174	0
bin	0.000176	0
bin	0.000178	1
bin	0.00018	0
bin	0.000182	0
bin	0.000184	0
bin	0.000186	0
bin	0.000188	0
bin	0.00019	0
bin	0.000192	0
bin	0.000194	0
bin	0.000196	0
bin	0.000198	0
bin	0.0002	0
bin	0.000202	0
bin	0.000204	0
bin	0.000206	0
bin	0.000208	0
bin	0.00021	0
bin	0.000212	0
statistic AdvancedSecurityNetwork.sensor.wlan[0].mac.dcf frameSequenceNumPackets:histogram
field count 2
field mean 1.5
field stddev 0.70710678118655
field min 1
field max 2
field sum 3
field sqrsum 5
attr recordingmode histogram
attr source frameSequenceNumPackets(frameSequenceFinished)
attr title "frame sequences: number of packets"
bin	-inf	0
bin	0	0
bin	1	1
bin	2	1
bin	3	0
scalar AdvancedSecurityNetwork.sensor.wlan[0].mac.dcf packetReceivedFromPeer:count 3
attr interpolationmode none
attr recordingmode count
attr title "packets received, count"
scalar AdvancedSecurityNetwork.sensor.wlan[0].mac.dcf packetReceivedFromPeer:sum(packetBytes) 142
attr interpolationmode none
attr recordingmode sum(packetBytes)
attr title "packets received, sum(packetBytes)"
scalar AdvancedSecurityNetwork.sensor.wlan[0].mac.dcf packetReceivedFromPeerUnicast:count 2
attr interpolationmode none
attr recordingmode count
attr source ieee80211Unicast(packetReceivedFromPeer)
attr title "packets received: unicast, count"
scalar AdvancedSecurityNetwork.sensor.wlan[0].mac.dcf packetReceivedFromPeerUnicast:sum(packetBytes) 78
attr interpolationmode none
attr recordingmode sum(packetBytes)
attr source ieee80211Unicast(packetReceivedFromPeer)
attr title "packets received: unicast, sum(packetBytes)"
scalar AdvancedSecurityNetwork.sensor.wlan[0].mac.dcf packetReceivedFromPeerMulticast:count 1
attr interpolationmode none
attr recordingmode count
attr source ieee80211Multicast(packetReceivedFromPeer)
attr title "packets received: multicast, count"
scalar AdvancedSecurityNetwork.sensor.wlan[0].mac.dcf packetReceivedFromPeerMulticast:sum(packetBytes) 64
attr interpolationmode none
attr recordingmode sum(packetBytes)
attr source ieee80211Multicast(packetReceivedFromPeer)
attr title "packets received: multicast, sum(packetBytes)"
scalar AdvancedSecurityNetwork.sensor.wlan[0].mac.dcf packetReceivedFromPeerBroadcast:count 1
attr interpolationmode none
attr recordingmode count
attr source ieee80211Broadcast(packetReceivedFromPeer)
attr title "packets received: broadcast, count"
scalar AdvancedSecurityNetwork.sensor.wlan[0].mac.dcf packetReceivedFromPeerBroadcast:sum(packetBytes) 64
attr interpolationmode none
attr recordingmode sum(packetBytes)
attr source ieee80211Broadcast(packetReceivedFromPeer)
attr title "packets received: broadcast, sum(packetBytes)"
scalar AdvancedSecurityNetwork.sensor.wlan[0].mac.dcf packetReceivedFromPeerWithRetry:count 0
attr interpolationmode none
attr recordingmode count
attr source ieee80211Retry(packetReceivedFromPeer)
attr title "packets received: with retry, count"
scalar AdvancedSecurityNetwork.sensor.wlan[0].mac.dcf packetReceivedFromPeerWithRetry:sum(packetBytes) 0
attr interpolationmode none
attr recordingmode sum(packetBytes)
attr source ieee80211Retry(packetReceivedFromPeer)
attr title "packets received: with retry, sum(packetBytes)"
scalar AdvancedSecurityNetwork.sensor.wlan[0].mac.dcf packetReceivedFromPeerWithoutRetry:count 3
attr interpolationmode none
attr recordingmode count
attr source ieee80211NotRetry(packetReceivedFromPeer)
attr title "packets received: without retry, count"
scalar AdvancedSecurityNetwork.sensor.wlan[0].mac.dcf packetReceivedFromPeerWithoutRetry:sum(packetBytes) 142
attr interpolationmode none
attr recordingmode sum(packetBytes)
attr source ieee80211NotRetry(packetReceivedFromPeer)
attr title "packets received: without retry, sum(packetBytes)"
scalar AdvancedSecurityNetwork.sensor.wlan[0].mac.dcf packetSentToPeer:count 3
attr interpolationmode none
attr recordingmode count
attr title "packets sent, count"
scalar AdvancedSecurityNetwork.sensor.wlan[0].mac.dcf packetSentToPeer:sum(packetBytes) 398
attr interpolationmode none
attr recordingmode sum(packetBytes)
attr title "packets sent, sum(packetBytes)"
scalar AdvancedSecurityNetwork.sensor.wlan[0].mac.dcf packetSentToPeerUnicast:count 2
attr interpolationmode none
attr recordingmode count
attr source ieee80211Unicast(packetSentToPeer)
attr title "packets sent: unicast, count"
scalar AdvancedSecurityNetwork.sensor.wlan[0].mac.dcf packetSentToPeerUnicast:sum(packetBytes) 334
attr interpolationmode none
attr recordingmode sum(packetBytes)
attr source ieee80211Unicast(packetSentToPeer)
attr title "packets sent: unicast, sum(packetBytes)"
scalar AdvancedSecurityNetwork.sensor.wlan[0].mac.dcf packetSentToPeerMulticast:count 1
attr interpolationmode none
attr recordingmode count
attr source ieee80211Multicast(packetSentToPeer)
attr title "packets sent: multicast, count"
scalar AdvancedSecurityNetwork.sensor.wlan[0].mac.dcf packetSentToPeerMulticast:sum(packetBytes) 64
attr interpolationmode none
attr recordingmode sum(packetBytes)
attr source ieee80211Multicast(packetSentToPeer)
attr title "packets sent: multicast, sum(packetBytes)"
scalar AdvancedSecurityNetwork.sensor.wlan[0].mac.dcf packetSentToPeerBroadcast:count 1
attr interpolationmode none
attr recordingmode count
attr source ieee80211Broadcast(packetSentToPeer)
attr title "packets sent: broadcast , count"
scalar AdvancedSecurityNetwork.sensor.wlan[0].mac.dcf packetSentToPeerBroadcast:sum(packetBytes) 64
attr interpolationmode none
attr recordingmode sum(packetBytes)
attr source ieee80211Broadcast(packetSentToPeer)
attr title "packets sent: broadcast , sum(packetBytes)"
scalar AdvancedSecurityNetwork.sensor.wlan[0].mac.dcf packetSentToPeerWithRetry:count 0
attr interpolationmode none
attr recordingmode count
attr source ieee80211Retry(packetSentToPeer)
attr title "packets sent: with retry, count"
scalar AdvancedSecurityNetwork.sensor.wlan[0].mac.dcf packetSentToPeerWithRetry:sum(packetBytes) 0
attr interpolationmode none
attr recordingmode sum(packetBytes)
attr source ieee80211Retry(packetSentToPeer)
attr title "packets sent: with retry, sum(packetBytes)"
scalar AdvancedSecurityNetwork.sensor.wlan[0].mac.dcf packetSentToPeerWithoutRetry:count 3
attr interpolationmode none
attr recordingmode count
attr source ieee80211NotRetry(packetSentToPeer)
attr title "packets sent: without retry, count"
scalar AdvancedSecurityNetwork.sensor.wlan[0].mac.dcf packetSentToPeerWithoutRetry:sum(packetBytes) 398
attr interpolationmode none
attr recordingmode sum(packetBytes)
attr source ieee80211NotRetry(packetSentToPeer)
attr title "packets sent: without retry, sum(packetBytes)"
scalar AdvancedSecurityNetwork.sensor.wlan[0].mac.dcf packetDrop:count 0
attr interpolationmode none
attr recordingmode count
attr source packetDropped
attr title "packet drops, count"
scalar AdvancedSecurityNetwork.sensor.wlan[0].mac.dcf packetDrop:sum(packetBytes) 0
attr interpolationmode none
attr recordingmode sum(packetBytes)
attr source packetDropped
attr title "packet drops, sum(packetBytes)"
scalar AdvancedSecurityNetwork.sensor.wlan[0].mac.dcf packetDropNotAddressedToUs:count 0
attr interpolationmode none
attr recordingmode count
attr source packetDropReasonIsNotAddressedToUs(packetDropped)
attr title "packet drops: not addressed to us, count"
scalar AdvancedSecurityNetwork.sensor.wlan[0].mac.dcf packetDropNotAddressedToUs:sum(packetBytes) 0
attr interpolationmode none
attr recordingmode sum(packetBytes)
attr source packetDropReasonIsNotAddressedToUs(packetDropped)
attr title "packet drops: not addressed to us, sum(packetBytes)"
scalar AdvancedSecurityNetwork.sensor.wlan[0].mac.dcf packetDropQueueOverflow:count 0
attr interpolationmode none
attr recordingmode count
attr source packetDropReasonIsQueueOverflow(packetDropped)
attr title "packet drops: queue overflow, count"
scalar AdvancedSecurityNetwork.sensor.wlan[0].mac.dcf packetDropQueueOverflow:sum(packetBytes) 0
attr interpolationmode none
attr recordingmode sum(packetBytes)
attr source packetDropReasonIsQueueOverflow(packetDropped)
attr title "packet drops: queue overflow, sum(packetBytes)"
scalar AdvancedSecurityNetwork.sensor.wlan[0].mac.dcf packetDropRetryLimitReached:count 0
attr interpolationmode none
attr recordingmode count
attr source packetDropReasonIsRetryLimitReached(packetDropped)
attr title "packet drops: retry limit reached, count"
scalar AdvancedSecurityNetwork.sensor.wlan[0].mac.dcf packetDropRetryLimitReached:sum(packetBytes) 0
attr interpolationmode none
attr recordingmode sum(packetBytes)
attr source packetDropReasonIsRetryLimitReached(packetDropped)
attr title "packet drops: retry limit reached, sum(packetBytes)"
scalar AdvancedSecurityNetwork.sensor.wlan[0].mac.dcf linkBroken:count 0
attr interpolationmode none
attr recordingmode count
attr title "link breaks, count"
par AdvancedSecurityNetwork.sensor.wlan[0].mac.ds typename "\"inet.linklayer.ieee80211.mac.Ds\""
par AdvancedSecurityNetwork.sensor.wlan[0].mac.ds mibModule "\"AdvancedSecurityNetwork.sensor.wlan[0].mib\""
par AdvancedSecurityNetwork.sensor.wlan[0].mac.rx typename "\"inet.linklayer.ieee80211.mac.Rx\""
par AdvancedSecurityNetwork.sensor.wlan[0].mac.tx typename "\"inet.linklayer.ieee80211.mac.Tx\""
par AdvancedSecurityNetwork.sensor.wlan[0].mac.tx rxModule "\"^.rx\""
par AdvancedSecurityNetwork.sensor.wlan[0].mac typename "\"inet.linklayer.ieee80211.mac.Ieee80211Mac\""
par AdvancedSecurityNetwork.sensor.wlan[0].mac interfaceTableModule "\"AdvancedSecurityNetwork.sensor.interfaceTable\""
par AdvancedSecurityNetwork.sensor.wlan[0].mac mibModule "\"AdvancedSecurityNetwork.sensor.wlan[0].mib\""
par AdvancedSecurityNetwork.sensor.wlan[0].mac modeSet "\"g(mixed)\""
attr enum a,b,g(erp),g(mixed),n(mixed-2.4Ghz),p,ac
par AdvancedSecurityNetwork.sensor.wlan[0].mac fcsMode "\"declared\""
attr enum declared,computed
par AdvancedSecurityNetwork.sensor.wlan[0].mac initialRadioMode "\"receiver\""
attr enum off,sleep,receiver,transmitter,transceiver
par AdvancedSecurityNetwork.sensor.wlan[0].mac mtu 2304B
attr unit B
par AdvancedSecurityNetwork.sensor.wlan[0].mac qosStation false
scalar AdvancedSecurityNetwork.sensor.wlan[0].mac packetReceivedFromLower:count 4
attr interpolationmode none
attr recordingmode count
attr title "packets received from lower layer, count"
scalar AdvancedSecurityNetwork.sensor.wlan[0].mac packetReceivedFromLower:sum(packetBytes) 206
attr interpolationmode none
attr recordingmode sum(packetBytes)
attr title "packets received from lower layer, sum(packetBytes)"
scalar AdvancedSecurityNetwork.sensor.wlan[0].mac packetSentToLower:count 3
attr interpolationmode none
attr recordingmode count
attr title "packets sent to lower layer, count"
scalar AdvancedSecurityNetwork.sensor.wlan[0].mac packetSentToLower:sum(packetBytes) 398
attr interpolationmode none
attr recordingmode sum(packetBytes)
attr title "packets sent to lower layer, sum(packetBytes)"
scalar AdvancedSecurityNetwork.sensor.wlan[0].mac packetReceivedFromUpper:count 2
attr interpolationmode none
attr recordingmode count
attr title "packets received from upper layer, count"
scalar AdvancedSecurityNetwork.sensor.wlan[0].mac packetReceivedFromUpper:sum(packetBytes) 328
attr interpolationmode none
attr recordingmode sum(packetBytes)
attr title "packets received from upper layer, sum(packetBytes)"
scalar AdvancedSecurityNetwork.sensor.wlan[0].mac packetSentToUpper:count 2
attr interpolationmode none
attr recordingmode count
attr title "packets sent to upper layer, count"
scalar AdvancedSecurityNetwork.sensor.wlan[0].mac packetSentToUpper:sum(packetBytes) 72
attr interpolationmode none
attr recordingmode sum(packetBytes)
attr title "packets sent to upper layer, sum(packetBytes)"
scalar AdvancedSecurityNetwork.sensor.wlan[0].mac packetDrop:count 1
attr interpolationmode none
attr recordingmode count
attr source packetDropped
attr title "packet drops, count"
scalar AdvancedSecurityNetwork.sensor.wlan[0].mac packetDrop:sum(packetBytes) 64
attr interpolationmode none
attr recordingmode sum(packetBytes)
attr source packetDropped
attr title "packet drops, sum(packetBytes)"
scalar AdvancedSecurityNetwork.sensor.wlan[0].mac packetDropIncorrectlyReceived:count 1
attr interpolationmode none
attr recordingmode count
attr source packetDropReasonIsIncorrectlyReceived(packetDropped)
attr title "packet drops: incorrectly received, count"
scalar AdvancedSecurityNetwork.sensor.wlan[0].mac packetDropIncorrectlyReceived:sum(packetBytes) 64
attr interpolationmode none
attr recordingmode sum(packetBytes)
attr source packetDropReasonIsIncorrectlyReceived(packetDropped)
attr title "packet drops: incorrectly received, sum(packetBytes)"
scalar AdvancedSecurityNetwork.sensor.wlan[0].mac packetDropNotAddressedToUs:count 0
attr interpolationmode none
attr recordingmode count
attr source packetDropReasonIsNotAddressedToUs(packetDropped)
attr title "packet drops: not addressed to us, count"
scalar AdvancedSecurityNetwork.sensor.wlan[0].mac packetDropNotAddressedToUs:sum(packetBytes) 0
attr interpolationmode none
attr recordingmode sum(packetBytes)
attr source packetDropReasonIsNotAddressedToUs(packetDropped)
attr title "packet drops: not addressed to us, sum(packetBytes)"
scalar AdvancedSecurityNetwork.sensor.wlan[0].mac packetDropQueueOverflow:count 0
attr interpolationmode none
attr recordingmode count
attr source packetDropReasonIsQueueOverflow(packetDropped)
attr title "packet drops: queue overflow, count"
scalar AdvancedSecurityNetwork.sensor.wlan[0].mac packetDropQueueOverflow:sum(packetBytes) 0
attr interpolationmode none
attr recordingmode sum(packetBytes)
attr source packetDropReasonIsQueueOverflow(packetDropped)
attr title "packet drops: queue overflow, sum(packetBytes)"
scalar AdvancedSecurityNetwork.sensor.wlan[0].mac packetDropRetryLimitReached:count 0
attr interpolationmode none
attr recordingmode count
attr source packetDropReasonIsRetryLimitReached(packetDropped)
attr title "packet drops: retry limit reached, count"
scalar AdvancedSecurityNetwork.sensor.wlan[0].mac packetDropRetryLimitReached:sum(packetBytes) 0
attr interpolationmode none
attr recordingmode sum(packetBytes)
attr source packetDropReasonIsRetryLimitReached(packetDropped)
attr title "packet drops: retry limit reached, sum(packetBytes)"
scalar AdvancedSecurityNetwork.sensor.wlan[0].mac packetDropDuplicateDetected:count 0
attr interpolationmode none
attr recordingmode count
attr source packetDropReasonIsDuplicateDetected(packetDropped)
attr title "packet drops: duplicate detected, count"
scalar AdvancedSecurityNetwork.sensor.wlan[0].mac packetDropDuplicateDetected:sum(packetBytes) 0
attr interpolationmode none
attr recordingmode sum(packetBytes)
attr source packetDropReasonIsDuplicateDetected(packetDropped)
attr title "packet drops: duplicate detected, sum(packetBytes)"
scalar AdvancedSecurityNetwork.sensor.wlan[0].mac packetDropOther:count 0
attr interpolationmode none
attr recordingmode count
attr source packetDropReasonIsOther(packetDropped)
attr title "packet drops: other, count"
scalar AdvancedSecurityNetwork.sensor.wlan[0].mac packetDropOther:sum(packetBytes) 0
attr interpolationmode none
attr recordingmode sum(packetBytes)
attr source packetDropReasonIsOther(packetDropped)
attr title "packet drops: other, sum(packetBytes)"
scalar AdvancedSecurityNetwork.sensor.wlan[0].mac linkBroken:count 0
attr interpolationmode none
attr recordingmode count
attr title "link breaks, count"
par AdvancedSecurityNetwork.sensor.wlan[0].radio.antenna typename "\"inet.physicallayer.wireless.common.antenna.IsotropicAntenna\""
par AdvancedSecurityNetwork.sensor.wlan[0].radio.antenna mobilityModule "\"^.^.^.mobility\""
par AdvancedSecurityNetwork.sensor.wlan[0].radio.antenna numAntennas 1
par AdvancedSecurityNetwork.sensor.wlan[0].radio.transmitter typename "\"inet.physicallayer.wireless.ieee80211.packetlevel.Ieee80211ScalarTransmitter\""
par AdvancedSecurityNetwork.sensor.wlan[0].radio.transmitter preambleDuration -1s
attr unit s
par AdvancedSecurityNetwork.sensor.wlan[0].radio.transmitter headerLength 192b
attr unit b
par AdvancedSecurityNetwork.sensor.wlan[0].radio.transmitter bitrate -1bps
attr unit bps
par AdvancedSecurityNetwork.sensor.wlan[0].radio.transmitter power 0.02W
attr unit W
par AdvancedSecurityNetwork.sensor.wlan[0].radio.transmitter centerFrequency 2.412e+09Hz
attr unit Hz
par AdvancedSecurityNetwork.sensor.wlan[0].radio.transmitter bandwidth "nan Hz"
attr unit Hz
par AdvancedSecurityNetwork.sensor.wlan[0].radio.transmitter codeRate 1
par AdvancedSecurityNetwork.sensor.wlan[0].radio.transmitter modulation "\"BPSK\""
par AdvancedSecurityNetwork.sensor.wlan[0].radio.transmitter opMode "\"g(mixed)\""
attr enum a,b,g(erp),g(mixed),n(mixed-2.4Ghz),p,ac
par AdvancedSecurityNetwork.sensor.wlan[0].radio.transmitter bandName "\"2.4 GHz\""
attr enum "2.4 GHz,5 GHz,5 GHz (20 MHz),5 GHz (40 MHz),5 GHz (80 MHz),5 GHz (160 MHz),5.9 GHz"
par AdvancedSecurityNetwork.sensor.wlan[0].radio.transmitter channelNumber 0
par AdvancedSecurityNetwork.sensor.wlan[0].radio.receiver.errorModel typename "\"inet.physicallayer.wireless.ieee80211.packetlevel.errormodel.Ieee80211NistErrorModel\""
par AdvancedSecurityNetwork.sensor.wlan[0].radio.receiver.errorModel corruptionMode "\"packet\""
attr enum packet,chunk,byte,bit
par AdvancedSecurityNetwork.sensor.wlan[0].radio.receiver.errorModel snirMode "\"min\""
attr enum min,mean
par AdvancedSecurityNetwork.sensor.wlan[0].radio.receiver.errorModel snirOffset 0dB
attr unit dB
par AdvancedSecurityNetwork.sensor.wlan[0].radio.receiver typename "\"inet.physicallayer.wireless.ieee80211.packetlevel.Ieee80211ScalarReceiver\""
par AdvancedSecurityNetwork.sensor.wlan[0].radio.receiver snirThreshold 4dB
attr unit dB
par AdvancedSecurityNetwork.sensor.wlan[0].radio.receiver snirThresholdMode "\"min\""
attr enum min,mean
par AdvancedSecurityNetwork.sensor.wlan[0].radio.receiver energyDetection -85dBm
attr unit dBm
par AdvancedSecurityNetwork.sensor.wlan[0].radio.receiver sensitivity -85dBm
attr unit dBm
par AdvancedSecurityNetwork.sensor.wlan[0].radio.receiver centerFrequency 2.412e+09Hz
attr unit Hz
par AdvancedSecurityNetwork.sensor.wlan[0].radio.receiver bandwidth 2.2e+07Hz
attr unit Hz
par AdvancedSecurityNetwork.sensor.wlan[0].radio.receiver modulation "\"BPSK\""
par AdvancedSecurityNetwork.sensor.wlan[0].radio.receiver opMode "\"g(mixed)\""
attr enum a,b,g(erp),g(mixed),n(mixed-2.4Ghz),p,ac
par AdvancedSecurityNetwork.sensor.wlan[0].radio.receiver bandName "\"2.4 GHz\""
attr enum "2.4 GHz,5 GHz,5 GHz (20 MHz),5 GHz (40 MHz),5 GHz (80 MHz),5 GHz (160 MHz),5.9 GHz"
par AdvancedSecurityNetwork.sensor.wlan[0].radio.receiver channelNumber 0
par AdvancedSecurityNetwork.sensor.wlan[0].radio typename "\"inet.physicallayer.wireless.ieee80211.packetlevel.Ieee80211ScalarRadio\""
par AdvancedSecurityNetwork.sensor.wlan[0].radio radioMediumModule "\"radioMedium\""
par AdvancedSecurityNetwork.sensor.wlan[0].radio energySourceModule "\"\""
par AdvancedSecurityNetwork.sensor.wlan[0].radio initialRadioMode "\"off\""
attr enum off,sleep,receiver,transmitter,transceiver
par AdvancedSecurityNetwork.sensor.wlan[0].radio switchingTimes "\"ms 0 0 0 0 0 0 0 0 0 0 0 0 0 0 0 0 0 0 0 0 0 0 0 0 0\""
par AdvancedSecurityNetwork.sensor.wlan[0].radio sendRawBytes false
par AdvancedSecurityNetwork.sensor.wlan[0].radio separateTransmissionParts false
par AdvancedSecurityNetwork.sensor.wlan[0].radio separateReceptionParts false
par AdvancedSecurityNetwork.sensor.wlan[0].radio displayCommunicationRange false
par AdvancedSecurityNetwork.sensor.wlan[0].radio displayInterferenceRange false
par AdvancedSecurityNetwork.sensor.wlan[0].radio centerFrequency 2.412e+09Hz
attr unit Hz
par AdvancedSecurityNetwork.sensor.wlan[0].radio bandwidth "nan Hz"
attr unit Hz
par AdvancedSecurityNetwork.sensor.wlan[0].radio signalAnalogRepresentation "\"scalar\""
attr enum scalar,dimensional
par AdvancedSecurityNetwork.sensor.wlan[0].radio opMode "\"g(mixed)\""
attr enum a,b,g(erp),g(mixed),n(mixed-2.4Ghz),p,ac
par AdvancedSecurityNetwork.sensor.wlan[0].radio bandName "\"2.4 GHz\""
attr enum "2.4 GHz,5 GHz,5 GHz (20 MHz),5 GHz (40 MHz),5 GHz (80 MHz),5 GHz (160 MHz),5.9 GHz"
par AdvancedSecurityNetwork.sensor.wlan[0].radio channelNumber 0
par AdvancedSecurityNetwork.sensor.wlan[0].radio crcMode "\"declared\""
attr enum declared,computed
statistic AdvancedSecurityNetwork.sensor.wlan[0].radio radioChannel:histogram
field count 1
field mean 0
field stddev -nan
field min 0
field max 0
field sum 0
field sqrsum 0
attr interpolationmode sample-hold
attr recordingmode histogram
attr source radioChannelChanged
attr title "Radio channel"
bin	-inf	0
bin	-0.5	0
bin	-0.48	0
bin	-0.46	0
bin	-0.44	0
bin	-0.42	0
bin	-0.4	0
bin	-0.38	0
bin	-0.36	0
bin	-0.34	0
bin	-0.32	0
bin	-0.3	0
bin	-0.28	0
bin	-0.26	0
bin	-0.24	0
bin	-0.22	0
bin	-0.2	0
bin	-0.18	0
bin	-0.16	0
bin	-0.14	0
bin	-0.12	0
bin	-0.1	0
bin	-0.08	0
bin	-0.06	0
bin	-0.04	0
bin	-0.02	0
bin	0	1
bin	0.02	0
bin	0.04	0
bin	0.06	0
bin	0.08	0
bin	0.1	0
bin	0.12	0
bin	0.14	0
bin	0.16	0
bin	0.18	0
bin	0.2	0
bin	0.22	0
bin	0.24	0
bin	0.26	0
bin	0.28	0
bin	0.3	0
bin	0.32	0
bin	0.34	0
bin	0.36	0
bin	0.38	0
bin	0.4	0
bin	0.42	0
bin	0.44	0
bin	0.46	0
bin	0.48	0
bin	0.5	0
scalar AdvancedSecurityNetwork.sensor.wlan[0].radio radioMode:count 9
attr interpolationmode sample-hold
attr recordingmode count
attr source radioModeChanged
attr title "Radio mode, count"
scalar AdvancedSecurityNetwork.sensor.wlan[0].radio receptionState:count 17
attr interpolationmode sample-hold
attr recordingmode count
attr source receptionStateChanged
attr title "Radio reception state, count"
scalar AdvancedSecurityNetwork.sensor.wlan[0].radio transmissionState:count 12
attr interpolationmode sample-hold
attr recordingmode count
attr source transmissionStateChanged
attr title "Radio transmission state, count"
statistic AdvancedSecurityNetwork.sensor.wlan[0].radio minSnir:histogram
field count 5
field mean 41.577272982207
field stddev 16.406401536579
field min 12.228609700649
field max 48.914438802596
field sum 207.88636491103
field sqrsum 9720.0281887026
attr recordingmode histogram
attr source minimumSnir(packetSentToUpper)
attr title "Min SNIR"
bin	-inf	0
bin	3	0
bin	4	0
bin	5	0
bin	6	0
bin	7	0
bin	8	0
bin	9	0
bin	10	0
bin	11	0
bin	12	1
bin	13	0
bin	14	0
bin	15	0
bin	16	0
bin	17	0
bin	18	0
bin	19	0
bin	20	0
bin	21	0
bin	22	0
bin	23	0
bin	24	0
bin	25	0
bin	26	0
bin	27	0
bin	28	0
bin	29	0
bin	30	0
bin	31	0
bin	32	0
bin	33	0
bin	34	0
bin	35	0
bin	36	0
bin	37	0
bin	38	0
bin	39	0
bin	40	0
bin	41	0
bin	42	0
bin	43	0
bin	44	0
bin	45	0
bin	46	0
bin	47	0
bin	48	4
bin	49	0
bin	50	0
bin	51	0
bin	52	0
bin	53	0
bin	54	0
bin	55	0
bin	56	0
bin	57	0
bin	58	0
bin	59	0
statistic AdvancedSecurityNetwork.sensor.wlan[0].radio packetErrorRate:histogram
field count 5
field mean 0.20000000067726
field stddev 0.44721359499957
field min 4.5051962160869e-10
field max 0.99999999978213
field sum 1.0000000033863
field sqrsum 0.99999999956426
attr recordingmode histogram
attr source packetErrorRate(packetSentToUpper)
attr title "Packet error rate"
bin	-inf	0
bin	0	4
bin	0.02	0
bin	0.04	0
bin	0.06	0
bin	0.08	0
bin	0.1	0
bin	0.12	0
bin	0.14	0
bin	0.16	0
bin	0.18	0
bin	0.2	0
bin	0.22	0
bin	0.24	0
bin	0.26	0
bin	0.28	0
bin	0.3	0
bin	0.32	0
bin	0.34	0
bin	0.36	0
bin	0.38	0
bin	0.4	0
bin	0.42	0
bin	0.44	0
bin	0.46	0
bin	0.48	0
bin	0.5	0
bin	0.52	0
bin	0.54	0
bin	0.56	0
bin	0.58	0
bin	0.6	0
bin	0.62	0
bin	0.64	0
bin	0.66	0
bin	0.68	0
bin	0.7	0
bin	0.72	0
bin	0.74	0
bin	0.76	0
bin	0.78	0
bin	0.8	0
bin	0.82	0
bin	0.84	0
bin	0.86	0
bin	0.88	0
bin	0.9	0
bin	0.92	0
bin	0.94	0
bin	0.96	0
bin	0.98	1
bin	1	0
bin	1.02	0
bin	1.04	0
bin	1.06	0
bin	1.08	0
bin	1.1	0
bin	1.12	0
bin	1.14	0
bin	1.16	0
bin	1.18	0
bin	1.2	0
bin	1.22	0
bin	1.24	0
bin	1.26	0
statistic AdvancedSecurityNetwork.sensor.wlan[0].radio bitErrorRate:histogram
field count 0
field mean -nan
field stddev -nan
field min -nan
field max -nan
field sum 0
field sqrsum 0
attr recordingmode histogram
attr source bitErrorRate(packetSentToUpper)
attr title "Bit error rate"
bin	-inf	0
bin	0	0
bin	1	0
statistic AdvancedSecurityNetwork.sensor.wlan[0].radio symbolErrorRate:histogram
field count 0
field mean -nan
field stddev -nan
field min -nan
field max -nan
field sum 0
field sqrsum 0
attr recordingmode histogram
attr source symbolErrorRate(packetSentToUpper)
attr title "Symbol error rate"
bin	-inf	0
bin	0	0
bin	1	0
par AdvancedSecurityNetwork.sensor.wlan[0] typename "\"inet.linklayer.ieee80211.Ieee80211Interface\""
par AdvancedSecurityNetwork.sensor.wlan[0] displayStringTextFormat "\"%a (%i)\\n%m\""
par AdvancedSecurityNetwork.sensor.wlan[0] recordPcap false
par AdvancedSecurityNetwork.sensor.wlan[0] numPcapRecorders 0
par AdvancedSecurityNetwork.sensor.wlan[0] interfaceTableModule "\"AdvancedSecurityNetwork.sensor.interfaceTable\""
par AdvancedSecurityNetwork.sensor.wlan[0] energySourceModule "\"\""
par AdvancedSecurityNetwork.sensor.wlan[0] opMode "\"g(mixed)\""
attr enum a,b,g(erp),g(mixed),n(mixed-2.4Ghz),p,ac
par AdvancedSecurityNetwork.sensor.wlan[0] address "\"0A-AA-00-00-00-01\""
attr mutable ""
par AdvancedSecurityNetwork.sensor.wlan[0] protocol "\"\""
par AdvancedSecurityNetwork.sensor.wlan[0] bitrate -1bps
attr unit bps
scalar AdvancedSecurityNetwork.sensor.wlan[0] packetDropInterfaceDown:count 0
attr interpolationmode none
attr recordingmode count
attr source packetDropReasonIsInterfaceDown(packetDropped)
attr title "packet drops: interface down, count"
scalar AdvancedSecurityNetwork.sensor.wlan[0] packetDropInterfaceDown:sum(packetBytes) 0
attr interpolationmode none
attr recordingmode sum(packetBytes)
attr source packetDropReasonIsInterfaceDown(packetDropped)
attr title "packet drops: interface down, sum(packetBytes)"
scalar AdvancedSecurityNetwork.sensor.wlan[0] packetDropNoCarrier:count 0
attr interpolationmode none
attr recordingmode count
attr source packetDropReasonIsNoCarrier(packetDropped)
attr title "packet drops: no carrier, count"
scalar AdvancedSecurityNetwork.sensor.wlan[0] packetDropNoCarrier:sum(packetBytes) 0
attr interpolationmode none
attr recordingmode sum(packetBytes)
attr source packetDropReasonIsNoCarrier(packetDropped)
attr title "packet drops: no carrier, sum(packetBytes)"
par AdvancedSecurityNetwork.sensor.ipv4.transportIn.channel typename "\"ned.IdealChannel\""
par AdvancedSecurityNetwork.sensor.ipv4.up.out[0].channel typename "\"ned.IdealChannel\""
par AdvancedSecurityNetwork.sensor.ipv4.lp.out[2].channel typename "\"ned.IdealChannel\""
par AdvancedSecurityNetwork.sensor.ipv4.ifIn.channel typename "\"ned.IdealChannel\""
par AdvancedSecurityNetwork.sensor.ipv4.configurator typename "\"inet.networklayer.configurator.ipv4.Ipv4NodeConfigurator\""
par AdvancedSecurityNetwork.sensor.ipv4.configurator interfaceTableModule "\"AdvancedSecurityNetwork.sensor.interfaceTable\""
par AdvancedSecurityNetwork.sensor.ipv4.configurator routingTableModule "\"AdvancedSecurityNetwork.sensor.ipv4.routingTable\""
par AdvancedSecurityNetwork.sensor.ipv4.configurator networkConfiguratorModule "\"configurator\""
par AdvancedSecurityNetwork.sensor.ipv4.configurator configureRoutingTable true
par AdvancedSecurityNetwork.sensor.ipv4.routingTable typename "\"inet.networklayer.ipv4.Ipv4RoutingTable\""
par AdvancedSecurityNetwork.sensor.ipv4.routingTable interfaceTableModule "\"AdvancedSecurityNetwork.sensor.interfaceTable\""
par AdvancedSecurityNetwork.sensor.ipv4.routingTable routerId "\"auto\""
par AdvancedSecurityNetwork.sensor.ipv4.routingTable netmaskRoutes "\"*\""
par AdvancedSecurityNetwork.sensor.ipv4.routingTable forwarding false
par AdvancedSecurityNetwork.sensor.ipv4.routingTable multicastForwarding false
par AdvancedSecurityNetwork.sensor.ipv4.routingTable useAdminDist false
par AdvancedSecurityNetwork.sensor.ipv4.routingTable routingFile "\"\""
par AdvancedSecurityNetwork.sensor.ipv4.natTable typename "\"inet.networklayer.ipv4.Ipv4NatTable\""
par AdvancedSecurityNetwork.sensor.ipv4.natTable networkProtocolModule "\"^.ip\""
par AdvancedSecurityNetwork.sensor.ipv4.natTable config "<config/> at content:1"
par AdvancedSecurityNetwork.sensor.ipv4.up typename "\"inet.common.MessageDispatcher\""
par AdvancedSecurityNetwork.sensor.ipv4.up displayStringTextFormat "\"processed %p pk (%l)\""
par AdvancedSecurityNetwork.sensor.ipv4.up forwardServiceRegistration true
par AdvancedSecurityNetwork.sensor.ipv4.up forwardProtocolRegistration true
par AdvancedSecurityNetwork.sensor.ipv4.igmp typename "\"inet.networklayer.ipv4.Igmpv2\""
par AdvancedSecurityNetwork.sensor.ipv4.igmp interfaceTableModule "\"AdvancedSecurityNetwork.sensor.interfaceTable\""
par AdvancedSecurityNetwork.sensor.ipv4.igmp routingTableModule "\"AdvancedSecurityNetwork.sensor.ipv4.routingTable\""
par AdvancedSecurityNetwork.sensor.ipv4.igmp crcMode "\"declared\""
attr enum declared,computed
par AdvancedSecurityNetwork.sensor.ipv4.igmp enabled true
par AdvancedSecurityNetwork.sensor.ipv4.igmp robustnessVariable 2
par AdvancedSecurityNetwork.sensor.ipv4.igmp queryInterval 125s
attr unit s
par AdvancedSecurityNetwork.sensor.ipv4.igmp queryResponseInterval 10s
attr unit s
par AdvancedSecurityNetwork.sensor.ipv4.igmp groupMembershipInterval 260s
attr unit s
par AdvancedSecurityNetwork.sensor.ipv4.igmp otherQuerierPresentInterval 255s
attr unit s
par AdvancedSecurityNetwork.sensor.ipv4.igmp startupQueryInterval 31.25s
attr unit s
par AdvancedSecurityNetwork.sensor.ipv4.igmp startupQueryCount 2
par AdvancedSecurityNetwork.sensor.ipv4.igmp lastMemberQueryInterval 1s
attr unit s
par AdvancedSecurityNetwork.sensor.ipv4.igmp lastMemberQueryCount 2
par AdvancedSecurityNetwork.sensor.ipv4.igmp unsolicitedReportInterval 10s
attr unit s
par AdvancedSecurityNetwork.sensor.ipv4.icmp typename "\"inet.networklayer.ipv4.Icmp\""
par AdvancedSecurityNetwork.sensor.ipv4.icmp interfaceTableModule "\"AdvancedSecurityNetwork.sensor.interfaceTable\""
par AdvancedSecurityNetwork.sensor.ipv4.icmp routingTableModule "\"AdvancedSecurityNetwork.sensor.ipv4.routingTable\""
par AdvancedSecurityNetwork.sensor.ipv4.icmp crcMode "\"declared\""
attr enum declared,computed
attr mutable ""
par AdvancedSecurityNetwork.sensor.ipv4.icmp quoteLength 8B
attr mutable ""
attr unit B
par AdvancedSecurityNetwork.sensor.ipv4.mp typename "\"inet.common.MessageDispatcher\""
par AdvancedSecurityNetwork.sensor.ipv4.mp displayStringTextFormat "\"processed %p pk (%l)\""
par AdvancedSecurityNetwork.sensor.ipv4.mp forwardServiceRegistration true
par AdvancedSecurityNetwork.sensor.ipv4.mp forwardProtocolRegistration true
par AdvancedSecurityNetwork.sensor.ipv4.ip typename "\"inet.networklayer.ipv4.Ipv4\""
par AdvancedSecurityNetwork.sensor.ipv4.ip interfaceTableModule "\"AdvancedSecurityNetwork.sensor.interfaceTable\""
par AdvancedSecurityNetwork.sensor.ipv4.ip routingTableModule "\"AdvancedSecurityNetwork.sensor.ipv4.routingTable\""
par AdvancedSecurityNetwork.sensor.ipv4.ip arpModule "\"AdvancedSecurityNetwork.sensor.ipv4.arp\""
par AdvancedSecurityNetwork.sensor.ipv4.ip icmpModule "\"AdvancedSecurityNetwork.sensor.ipv4.icmp\""
par AdvancedSecurityNetwork.sensor.ipv4.ip crcMode "\"declared\""
attr enum declared,computed
par AdvancedSecurityNetwork.sensor.ipv4.ip timeToLive 32
par AdvancedSecurityNetwork.sensor.ipv4.ip multicastTimeToLive 32
par AdvancedSecurityNetwork.sensor.ipv4.ip fragmentTimeout 60s
attr unit s
par AdvancedSecurityNetwork.sensor.ipv4.ip limitedBroadcast false
par AdvancedSecurityNetwork.sensor.ipv4.ip directBroadcastInterfaces "\"\""
scalar AdvancedSecurityNetwork.sensor.ipv4.ip packetDropAddressResolutionFailed:count 0
attr interpolationmode none
attr recordingmode count
attr source packetDropReasonIsAddressResolutionFailed(packetDropped)
attr title "packet drop: address resolution failed, count"
scalar AdvancedSecurityNetwork.sensor.ipv4.ip packetDropAddressResolutionFailed:sum(packetBytes) 0
attr interpolationmode none
attr recordingmode sum(packetBytes)
attr source packetDropReasonIsAddressResolutionFailed(packetDropped)
attr title "packet drop: address resolution failed, sum(packetBytes)"
scalar AdvancedSecurityNetwork.sensor.ipv4.ip packetDropHopLimitReached:count 0
attr interpolationmode none
attr recordingmode count
attr source packetDropReasonIsHopLimitReached(packetDropped)
attr title "packet drop: hop limit reached, count"
scalar AdvancedSecurityNetwork.sensor.ipv4.ip packetDropHopLimitReached:sum(packetBytes) 0
attr interpolationmode none
attr recordingmode sum(packetBytes)
attr source packetDropReasonIsHopLimitReached(packetDropped)
attr title "packet drop: hop limit reached, sum(packetBytes)"
scalar AdvancedSecurityNetwork.sensor.ipv4.ip packetDropForwardingDisabled:count 0
attr interpolationmode none
attr recordingmode count
attr source packetDropReasonIsForwardingDisabled(packetDropped)
attr title "packet drop: forwarding disabled, count"
scalar AdvancedSecurityNetwork.sensor.ipv4.ip packetDropForwardingDisabled:sum(packetBytes) 0
attr interpolationmode none
attr recordingmode sum(packetBytes)
attr source packetDropReasonIsForwardingDisabled(packetDropped)
attr title "packet drop: forwarding disabled, sum(packetBytes)"
scalar AdvancedSecurityNetwork.sensor.ipv4.ip packetDropNoInterfaceFound:count 0
attr interpolationmode none
attr recordingmode count
attr source packetDropReasonIsNoInterfaceFound(packetDropped)
attr title "packet drop: no interface found, count"
scalar AdvancedSecurityNetwork.sensor.ipv4.ip packetDropNoInterfaceFound:sum(packetBytes) 0
attr interpolationmode none
attr recordingmode sum(packetBytes)
attr source packetDropReasonIsNoInterfaceFound(packetDropped)
attr title "packet drop: no interface found, sum(packetBytes)"
scalar AdvancedSecurityNetwork.sensor.ipv4.ip packetDropNoRouteFound:count 0
attr interpolationmode none
attr recordingmode count
attr source packetDropReasonIsNoRouteFound(packetDropped)
attr title "packet drop: no route found, count"
scalar AdvancedSecurityNetwork.sensor.ipv4.ip packetDropNoRouteFound:sum(packetBytes) 0
attr interpolationmode none
attr recordingmode sum(packetBytes)
attr source packetDropReasonIsNoRouteFound(packetDropped)
attr title "packet drop: no route found, sum(packetBytes)"
scalar AdvancedSecurityNetwork.sensor.ipv4.ip packetDropUndefined:count 0
attr interpolationmode none
attr recordingmode count
attr source packetDropReasonIsUndefined(packetDropped)
attr title "packet drop: undefined, count"
scalar AdvancedSecurityNetwork.sensor.ipv4.ip packetDropUndefined:sum(packetBytes) 0
attr interpolationmode none
attr recordingmode sum(packetBytes)
attr source packetDropReasonIsUndefined(packetDropped)
attr title "packet drop: undefined, sum(packetBytes)"
par AdvancedSecurityNetwork.sensor.ipv4.arp typename "\"inet.networklayer.arp.ipv4.Arp\""
par AdvancedSecurityNetwork.sensor.ipv4.arp interfaceTableModule "\"AdvancedSecurityNetwork.sensor.interfaceTable\""
par AdvancedSecurityNetwork.sensor.ipv4.arp routingTableModule "\"AdvancedSecurityNetwork.sensor.ipv4.routingTable\""
par AdvancedSecurityNetwork.sensor.ipv4.arp retryTimeout 1s
attr unit s
par AdvancedSecurityNetwork.sensor.ipv4.arp retryCount 3
par AdvancedSecurityNetwork.sensor.ipv4.arp cacheTimeout 120s
attr unit s
par AdvancedSecurityNetwork.sensor.ipv4.arp proxyArpInterfaces "\"\""
scalar AdvancedSecurityNetwork.sensor.ipv4.arp arpResolutionFailed:count 0
attr recordingmode count
attr title "ARP failed resolutions, count"
scalar AdvancedSecurityNetwork.sensor.ipv4.arp arpResolutionCompleted:count 2
attr recordingmode count
attr title "ARP completed resolutions, count"
scalar AdvancedSecurityNetwork.sensor.ipv4.arp arpResolutionInitiated:count 1
attr recordingmode count
attr title "ARP initiated resolutions, count"
scalar AdvancedSecurityNetwork.sensor.ipv4.arp arpReplySent:count 0
attr recordingmode count
attr source arpReplySent
attr title "ARP replies sent, count"
scalar AdvancedSecurityNetwork.sensor.ipv4.arp arpReplySent:sum(packetBytes) 0
attr recordingmode sum(packetBytes)
attr source arpReplySent
attr title "ARP replies sent, sum(packetBytes)"
scalar AdvancedSecurityNetwork.sensor.ipv4.arp arpRequestSent:count 1
attr recordingmode count
attr source arpRequestSent
attr title "ARP request sent, count"
scalar AdvancedSecurityNetwork.sensor.ipv4.arp arpRequestSent:sum(packetBytes) 28
attr recordingmode sum(packetBytes)
attr source arpRequestSent
attr title "ARP request sent, sum(packetBytes)"
par AdvancedSecurityNetwork.sensor.ipv4.lp typename "\"inet.common.MessageDispatcher\""
par AdvancedSecurityNetwork.sensor.ipv4.lp displayStringTextFormat "\"processed %p pk (%l)\""
par AdvancedSecurityNetwork.sensor.ipv4.lp forwardServiceRegistration true
par AdvancedSecurityNetwork.sensor.ipv4.lp forwardProtocolRegistration true
par AdvancedSecurityNetwork.sensor.ipv4 typename "\"inet.networklayer.ipv4.Ipv4NetworkLayer\""
par AdvancedSecurityNetwork.sensor.ipv4 forwarding false
par AdvancedSecurityNetwork.sensor.ipv4 multicastForwarding false
par AdvancedSecurityNetwork.sensor.ipv4 interfaceTableModule "\"AdvancedSecurityNetwork.sensor.interfaceTable\""
par AdvancedSecurityNetwork.sensor.ipv4 displayStringTextFormat "\"%i\""
par AdvancedSecurityNetwork.sensor.nl typename "\"inet.common.MessageDispatcher\""
par AdvancedSecurityNetwork.sensor.nl displayStringTextFormat "\"processed %p pk (%l)\""
par AdvancedSecurityNetwork.sensor.nl forwardServiceRegistration true
par AdvancedSecurityNetwork.sensor.nl forwardProtocolRegistration true
par AdvancedSecurityNetwork.sensor.udp typename "\"inet.transportlayer.udp.Udp\""
par AdvancedSecurityNetwork.sensor.udp interfaceTableModule "\"AdvancedSecurityNetwork.sensor.interfaceTable\""
par AdvancedSecurityNetwork.sensor.udp icmpModule "\"^.ipv4.icmp\""
par AdvancedSecurityNetwork.sensor.udp icmpv6Module "\"^.ipv6.icmpv6\""
par AdvancedSecurityNetwork.sensor.udp crcMode "\"declared\""
attr enum disabled,declared,computed
par AdvancedSecurityNetwork.sensor.udp defaultMulticastLoop true
scalar AdvancedSecurityNetwork.sensor.udp packetReceived:count 0
attr interpolationmode none
attr recordingmode count
attr source packetReceived
attr title "packets received, count"
scalar AdvancedSecurityNetwork.sensor.udp packetReceived:sum(packetBytes) 0
attr interpolationmode none
attr recordingmode sum(packetBytes)
attr source packetReceived
attr title "packets received, sum(packetBytes)"
scalar AdvancedSecurityNetwork.sensor.udp packetSent:count 1
attr interpolationmode none
attr recordingmode count
attr source packetSent
attr title "packets sent, count"
scalar AdvancedSecurityNetwork.sensor.udp packetSent:sum(packetBytes) 264
attr interpolationmode none
attr recordingmode sum(packetBytes)
attr source packetSent
attr title "packets sent, sum(packetBytes)"
scalar AdvancedSecurityNetwork.sensor.udp passedUpPk:count 0
attr interpolationmode none
attr recordingmode count
attr source packetSentToUpper
attr title "packets passed up, count"
scalar AdvancedSecurityNetwork.sensor.udp droppedPkWrongPort:count 0
attr interpolationmode none
attr recordingmode count
attr source packetDropReasonIsNoPortFound(packetDropped)
attr title "packets dropped (wrong port), count"
scalar AdvancedSecurityNetwork.sensor.udp droppedPkBadChecksum:count 0
attr interpolationmode none
attr recordingmode count
attr source packetDropReasonIsIncorrectlyReceived(packetDropped)
attr title "packets dropped (checksum error), count"
par AdvancedSecurityNetwork.sensor.tcp typename "\"inet.transportlayer.tcp.Tcp\""
par AdvancedSecurityNetwork.sensor.tcp crcMode "\"declared\""
attr enum declared,computed
par AdvancedSecurityNetwork.sensor.tcp advertisedWindow 7504
par AdvancedSecurityNetwork.sensor.tcp delayedAcksEnabled false
par AdvancedSecurityNetwork.sensor.tcp nagleEnabled true
par AdvancedSecurityNetwork.sensor.tcp limitedTransmitEnabled false
par AdvancedSecurityNetwork.sensor.tcp increasedIWEnabled false
par AdvancedSecurityNetwork.sensor.tcp sackSupport false
par AdvancedSecurityNetwork.sensor.tcp windowScalingSupport false
par AdvancedSecurityNetwork.sensor.tcp windowScalingFactor -1
par AdvancedSecurityNetwork.sensor.tcp timestampSupport false
par AdvancedSecurityNetwork.sensor.tcp mss 536
par AdvancedSecurityNetwork.sensor.tcp msl 120s
attr unit s
par AdvancedSecurityNetwork.sensor.tcp tcpAlgorithmClass "\"TcpReno\""
attr enum TcpVegas,TcpWestwood,TcpNewReno,TcpReno,TcpTahoe,TcpNoCongestionControl
par AdvancedSecurityNetwork.sensor.tcp useDataNotification false
par AdvancedSecurityNetwork.sensor.tcp dupthresh 3
par AdvancedSecurityNetwork.sensor.tcp initialSsthresh 4294967295
par AdvancedSecurityNetwork.sensor.tcp stopOperationExtraTime 0s
attr unit s
par AdvancedSecurityNetwork.sensor.tcp stopOperationTimeout 2s
attr unit s
par AdvancedSecurityNetwork.sensor.tcp ecnWillingness false
par AdvancedSecurityNetwork.sensor.tcp dctcpGamma 0.0625
par AdvancedSecurityNetwork.sensor.tn typename "\"inet.common.MessageDispatcher\""
par AdvancedSecurityNetwork.sensor.tn displayStringTextFormat "\"processed %p pk (%l)\""
par AdvancedSecurityNetwork.sensor.tn forwardServiceRegistration true
par AdvancedSecurityNetwork.sensor.tn forwardProtocolRegistration true
par AdvancedSecurityNetwork.sensor.app[0] typename "\"SmartSensorApp\""
par AdvancedSecurityNetwork.sensor.app[0] localPort 4000
par AdvancedSecurityNetwork.sensor.app[0] destPort 5000
par AdvancedSecurityNetwork.sensor.app[0] destAddress "\"mitm\""
par AdvancedSecurityNetwork.sensor.app[0] sendInterval 1s
attr unit s
par AdvancedSecurityNetwork.sensor.app[0] cryptoCpuDelay 50ms
attr unit ms
par AdvancedSecurityNetwork.sensor.app[0] senseDelay 5ms
attr unit ms
par AdvancedSecurityNetwork.sensor.app[0] actuateDelay 0ms
attr unit ms
par AdvancedSecurityNetwork.sensor.app[0] packetSize 256B
attr unit B
par AdvancedSecurityNetwork.sensor.app[0] cryptoType "\"RSA\""
par AdvancedSecurityNetwork.sensor.app[0] isActuator false
scalar AdvancedSecurityNetwork.sensor.app[0] NumGenerated 6
scalar AdvancedSecurityNetwork.sensor.app[0] NumSent 1
scalar AdvancedSecurityNetwork.sensor.app[0] NumReceived 0
scalar AdvancedSecurityNetwork.sensor.app[0] NumDropped 0
scalar AdvancedSecurityNetwork.sensor.app[0] NumActuated 0
scalar AdvancedSecurityNetwork.sensor.app[0] NumSecurityVulnerabilities 0
par AdvancedSecurityNetwork.sensor.at typename "\"inet.common.MessageDispatcher\""
par AdvancedSecurityNetwork.sensor.at displayStringTextFormat "\"processed %p pk (%l)\""
par AdvancedSecurityNetwork.sensor.at forwardServiceRegistration true
par AdvancedSecurityNetwork.sensor.at forwardProtocolRegistration true
par AdvancedSecurityNetwork.sensor typename "\"inet.node.inet.WirelessHost\""
par AdvancedSecurityNetwork.sensor hasStatus false
par AdvancedSecurityNetwork.sensor osgModel "\"\""
par AdvancedSecurityNetwork.sensor osgModelColor "\"\""
par AdvancedSecurityNetwork.sensor canvasImage "\"\""
par AdvancedSecurityNetwork.sensor canvasImageColor "\"\""
par AdvancedSecurityNetwork.sensor recordPcap false
par AdvancedSecurityNetwork.sensor numPcapRecorders 0
par AdvancedSecurityNetwork.sensor numLoInterfaces 1
par AdvancedSecurityNetwork.sensor numWlanInterfaces 1
par AdvancedSecurityNetwork.sensor numEthInterfaces 0
par AdvancedSecurityNetwork.sensor numPppInterfaces 0
par AdvancedSecurityNetwork.sensor numTunInterfaces 0
par AdvancedSecurityNetwork.sensor numVirtInterfaces 0
par AdvancedSecurityNetwork.sensor fcsMode "\"declared\""
attr enum declared,computed
par AdvancedSecurityNetwork.sensor hasIpv4 true
par AdvancedSecurityNetwork.sensor hasIpv6 false
par AdvancedSecurityNetwork.sensor hasGn false
par AdvancedSecurityNetwork.sensor forwarding false
par AdvancedSecurityNetwork.sensor multicastForwarding false
par AdvancedSecurityNetwork.sensor hasUdp true
par AdvancedSecurityNetwork.sensor hasTcp true
par AdvancedSecurityNetwork.sensor hasSctp false
par AdvancedSecurityNetwork.sensor numApps 1
par AdvancedSecurityNetwork.mitm.radioIn[0].channel typename "\"ned.IdealChannel\""
par AdvancedSecurityNetwork.mitm.mobility typename "\"inet.mobility.static.StationaryMobility\""
par AdvancedSecurityNetwork.mitm.mobility subjectModule "\"^\""
par AdvancedSecurityNetwork.mitm.mobility coordinateSystemModule "\"\""
par AdvancedSecurityNetwork.mitm.mobility displayStringTextFormat "\"p: %p\\nv: %v\""
attr mutable ""
par AdvancedSecurityNetwork.mitm.mobility updateDisplayString true
par AdvancedSecurityNetwork.mitm.mobility constraintAreaMinX "-inf m"
attr unit m
par AdvancedSecurityNetwork.mitm.mobility constraintAreaMinY "-inf m"
attr unit m
par AdvancedSecurityNetwork.mitm.mobility constraintAreaMinZ "-inf m"
attr unit m
par AdvancedSecurityNetwork.mitm.mobility constraintAreaMaxX "inf m"
attr unit m
par AdvancedSecurityNetwork.mitm.mobility constraintAreaMaxY "inf m"
attr unit m
par AdvancedSecurityNetwork.mitm.mobility constraintAreaMaxZ "inf m"
attr unit m
par AdvancedSecurityNetwork.mitm.mobility initialX "nan m"
attr unit m
par AdvancedSecurityNetwork.mitm.mobility initialY "nan m"
attr unit m
par AdvancedSecurityNetwork.mitm.mobility initialZ 0m
attr unit m
par AdvancedSecurityNetwork.mitm.mobility initialLatitude "nan deg"
attr unit deg
par AdvancedSecurityNetwork.mitm.mobility initialLongitude "nan deg"
attr unit deg
[...]
attr title "Symbol error rate"
bin	-inf	0
bin	0	0
bin	1	0
par AdvancedSecurityNetwork.actuator.wlan[0] typename "\"inet.linklayer.ieee80211.Ieee80211Interface\""
par AdvancedSecurityNetwork.actuator.wlan[0] displayStringTextFormat "\"%a (%i)\\n%m\""
par AdvancedSecurityNetwork.actuator.wlan[0] recordPcap false
par AdvancedSecurityNetwork.actuator.wlan[0] numPcapRecorders 0
par AdvancedSecurityNetwork.actuator.wlan[0] interfaceTableModule "\"AdvancedSecurityNetwork.actuator.interfaceTable\""
par AdvancedSecurityNetwork.actuator.wlan[0] energySourceModule "\"\""
par AdvancedSecurityNetwork.actuator.wlan[0] opMode "\"g(mixed)\""
attr enum a,b,g(erp),g(mixed),n(mixed-2.4Ghz),p,ac
par AdvancedSecurityNetwork.actuator.wlan[0] address "\"0A-AA-00-00-00-03\""
attr mutable ""
par AdvancedSecurityNetwork.actuator.wlan[0] protocol "\"\""
par AdvancedSecurityNetwork.actuator.wlan[0] bitrate -1bps
attr unit bps
scalar AdvancedSecurityNetwork.actuator.wlan[0] packetDropInterfaceDown:count 0
attr interpolationmode none
attr recordingmode count
attr source packetDropReasonIsInterfaceDown(packetDropped)
attr title "packet drops: interface down, count"
scalar AdvancedSecurityNetwork.actuator.wlan[0] packetDropInterfaceDown:sum(packetBytes) 0
attr interpolationmode none
attr recordingmode sum(packetBytes)
attr source packetDropReasonIsInterfaceDown(packetDropped)
attr title "packet drops: interface down, sum(packetBytes)"
scalar AdvancedSecurityNetwork.actuator.wlan[0] packetDropNoCarrier:count 0
attr interpolationmode none
attr recordingmode count
attr source packetDropReasonIsNoCarrier(packetDropped)
attr title "packet drops: no carrier, count"
scalar AdvancedSecurityNetwork.actuator.wlan[0] packetDropNoCarrier:sum(packetBytes) 0
attr interpolationmode none
attr recordingmode sum(packetBytes)
attr source packetDropReasonIsNoCarrier(packetDropped)
attr title "packet drops: no carrier, sum(packetBytes)"
par AdvancedSecurityNetwork.actuator.ipv4.transportIn.channel typename "\"ned.IdealChannel\""
par AdvancedSecurityNetwork.actuator.ipv4.up.out[0].channel typename "\"ned.IdealChannel\""
par AdvancedSecurityNetwork.actuator.ipv4.lp.out[2].channel typename "\"ned.IdealChannel\""
par AdvancedSecurityNetwork.actuator.ipv4.ifIn.channel typename "\"ned.IdealChannel\""
par AdvancedSecurityNetwork.actuator.ipv4.configurator typename "\"inet.networklayer.configurator.ipv4.Ipv4NodeConfigurator\""
par AdvancedSecurityNetwork.actuator.ipv4.configurator interfaceTableModule "\"AdvancedSecurityNetwork.actuator.interfaceTable\""
par AdvancedSecurityNetwork.actuator.ipv4.configurator routingTableModule "\"AdvancedSecurityNetwork.actuator.ipv4.routingTable\""
par AdvancedSecurityNetwork.actuator.ipv4.configurator networkConfiguratorModule "\"configurator\""
par AdvancedSecurityNetwork.actuator.ipv4.configurator configureRoutingTable true
par AdvancedSecurityNetwork.actuator.ipv4.routingTable typename "\"inet.networklayer.ipv4.Ipv4RoutingTable\""
par AdvancedSecurityNetwork.actuator.ipv4.routingTable interfaceTableModule "\"AdvancedSecurityNetwork.actuator.interfaceTable\""
par AdvancedSecurityNetwork.actuator.ipv4.routingTable routerId "\"auto\""
par AdvancedSecurityNetwork.actuator.ipv4.routingTable netmaskRoutes "\"*\""
par AdvancedSecurityNetwork.actuator.ipv4.routingTable forwarding false
par AdvancedSecurityNetwork.actuator.ipv4.routingTable multicastForwarding false
par AdvancedSecurityNetwork.actuator.ipv4.routingTable useAdminDist false
par AdvancedSecurityNetwork.actuator.ipv4.routingTable routingFile "\"\""
par AdvancedSecurityNetwork.actuator.ipv4.natTable typename "\"inet.networklayer.ipv4.Ipv4NatTable\""
par AdvancedSecurityNetwork.actuator.ipv4.natTable networkProtocolModule "\"^.ip\""
par AdvancedSecurityNetwork.actuator.ipv4.natTable config "<config/> at content:1"
par AdvancedSecurityNetwork.actuator.ipv4.up typename "\"inet.common.MessageDispatcher\""
par AdvancedSecurityNetwork.actuator.ipv4.up displayStringTextFormat "\"processed %p pk (%l)\""
par AdvancedSecurityNetwork.actuator.ipv4.up forwardServiceRegistration true
par AdvancedSecurityNetwork.actuator.ipv4.up forwardProtocolRegistration true
par AdvancedSecurityNetwork.actuator.ipv4.igmp typename "\"inet.networklayer.ipv4.Igmpv2\""
par AdvancedSecurityNetwork.actuator.ipv4.igmp interfaceTableModule "\"AdvancedSecurityNetwork.actuator.interfaceTable\""
par AdvancedSecurityNetwork.actuator.ipv4.igmp routingTableModule "\"AdvancedSecurityNetwork.actuator.ipv4.routingTable\""
par AdvancedSecurityNetwork.actuator.ipv4.igmp crcMode "\"declared\""
attr enum declared,computed
par AdvancedSecurityNetwork.actuator.ipv4.igmp enabled true
par AdvancedSecurityNetwork.actuator.ipv4.igmp robustnessVariable 2
par AdvancedSecurityNetwork.actuator.ipv4.igmp queryInterval 125s
attr unit s
par AdvancedSecurityNetwork.actuator.ipv4.igmp queryResponseInterval 10s
attr unit s
par AdvancedSecurityNetwork.actuator.ipv4.igmp groupMembershipInterval 260s
attr unit s
par AdvancedSecurityNetwork.actuator.ipv4.igmp otherQuerierPresentInterval 255s
attr unit s
par AdvancedSecurityNetwork.actuator.ipv4.igmp startupQueryInterval 31.25s
attr unit s
par AdvancedSecurityNetwork.actuator.ipv4.igmp startupQueryCount 2
par AdvancedSecurityNetwork.actuator.ipv4.igmp lastMemberQueryInterval 1s
attr unit s
par AdvancedSecurityNetwork.actuator.ipv4.igmp lastMemberQueryCount 2
par AdvancedSecurityNetwork.actuator.ipv4.igmp unsolicitedReportInterval 10s
attr unit s
par AdvancedSecurityNetwork.actuator.ipv4.icmp typename "\"inet.networklayer.ipv4.Icmp\""
par AdvancedSecurityNetwork.actuator.ipv4.icmp interfaceTableModule "\"AdvancedSecurityNetwork.actuator.interfaceTable\""
par AdvancedSecurityNetwork.actuator.ipv4.icmp routingTableModule "\"AdvancedSecurityNetwork.actuator.ipv4.routingTable\""
par AdvancedSecurityNetwork.actuator.ipv4.icmp crcMode "\"declared\""
attr enum declared,computed
attr mutable ""
par AdvancedSecurityNetwork.actuator.ipv4.icmp quoteLength 8B
attr mutable ""
attr unit B
par AdvancedSecurityNetwork.actuator.ipv4.mp typename "\"inet.common.MessageDispatcher\""
par AdvancedSecurityNetwork.actuator.ipv4.mp displayStringTextFormat "\"processed %p pk (%l)\""
par AdvancedSecurityNetwork.actuator.ipv4.mp forwardServiceRegistration true
par AdvancedSecurityNetwork.actuator.ipv4.mp forwardProtocolRegistration true
par AdvancedSecurityNetwork.actuator.ipv4.ip typename "\"inet.networklayer.ipv4.Ipv4\""
par AdvancedSecurityNetwork.actuator.ipv4.ip interfaceTableModule "\"AdvancedSecurityNetwork.actuator.interfaceTable\""
par AdvancedSecurityNetwork.actuator.ipv4.ip routingTableModule "\"AdvancedSecurityNetwork.actuator.ipv4.routingTable\""
par AdvancedSecurityNetwork.actuator.ipv4.ip arpModule "\"AdvancedSecurityNetwork.actuator.ipv4.arp\""
par AdvancedSecurityNetwork.actuator.ipv4.ip icmpModule "\"AdvancedSecurityNetwork.actuator.ipv4.icmp\""
par AdvancedSecurityNetwork.actuator.ipv4.ip crcMode "\"declared\""
attr enum declared,computed
par AdvancedSecurityNetwork.actuator.ipv4.ip timeToLive 32
par AdvancedSecurityNetwork.actuator.ipv4.ip multicastTimeToLive 32
par AdvancedSecurityNetwork.actuator.ipv4.ip fragmentTimeout 60s
attr unit s
par AdvancedSecurityNetwork.actuator.ipv4.ip limitedBroadcast false
par AdvancedSecurityNetwork.actuator.ipv4.ip directBroadcastInterfaces "\"\""
scalar AdvancedSecurityNetwork.actuator.ipv4.ip packetDropAddressResolutionFailed:count 0
attr interpolationmode none
attr recordingmode count
attr source packetDropReasonIsAddressResolutionFailed(packetDropped)
attr title "packet drop: address resolution failed, count"
scalar AdvancedSecurityNetwork.actuator.ipv4.ip packetDropAddressResolutionFailed:sum(packetBytes) 0
attr interpolationmode none
attr recordingmode sum(packetBytes)
attr source packetDropReasonIsAddressResolutionFailed(packetDropped)
attr title "packet drop: address resolution failed, sum(packetBytes)"
scalar AdvancedSecurityNetwork.actuator.ipv4.ip packetDropHopLimitReached:count 0
attr interpolationmode none
attr recordingmode count
attr source packetDropReasonIsHopLimitReached(packetDropped)
attr title "packet drop: hop limit reached, count"
scalar AdvancedSecurityNetwork.actuator.ipv4.ip packetDropHopLimitReached:sum(packetBytes) 0
attr interpolationmode none
attr recordingmode sum(packetBytes)
attr source packetDropReasonIsHopLimitReached(packetDropped)
attr title "packet drop: hop limit reached, sum(packetBytes)"
scalar AdvancedSecurityNetwork.actuator.ipv4.ip packetDropForwardingDisabled:count 0
attr interpolationmode none
attr recordingmode count
attr source packetDropReasonIsForwardingDisabled(packetDropped)
attr title "packet drop: forwarding disabled, count"
scalar AdvancedSecurityNetwork.actuator.ipv4.ip packetDropForwardingDisabled:sum(packetBytes) 0
attr interpolationmode none
attr recordingmode sum(packetBytes)
attr source packetDropReasonIsForwardingDisabled(packetDropped)
attr title "packet drop: forwarding disabled, sum(packetBytes)"
scalar AdvancedSecurityNetwork.actuator.ipv4.ip packetDropNoInterfaceFound:count 0
attr interpolationmode none
attr recordingmode count
attr source packetDropReasonIsNoInterfaceFound(packetDropped)
attr title "packet drop: no interface found, count"
scalar AdvancedSecurityNetwork.actuator.ipv4.ip packetDropNoInterfaceFound:sum(packetBytes) 0
attr interpolationmode none
attr recordingmode sum(packetBytes)
attr source packetDropReasonIsNoInterfaceFound(packetDropped)
attr title "packet drop: no interface found, sum(packetBytes)"
scalar AdvancedSecurityNetwork.actuator.ipv4.ip packetDropNoRouteFound:count 0
attr interpolationmode none
attr recordingmode count
attr source packetDropReasonIsNoRouteFound(packetDropped)
attr title "packet drop: no route found, count"
scalar AdvancedSecurityNetwork.actuator.ipv4.ip packetDropNoRouteFound:sum(packetBytes) 0
attr interpolationmode none
attr recordingmode sum(packetBytes)
attr source packetDropReasonIsNoRouteFound(packetDropped)
attr title "packet drop: no route found, sum(packetBytes)"
scalar AdvancedSecurityNetwork.actuator.ipv4.ip packetDropUndefined:count 0
attr interpolationmode none
attr recordingmode count
attr source packetDropReasonIsUndefined(packetDropped)
attr title "packet drop: undefined, count"
scalar AdvancedSecurityNetwork.actuator.ipv4.ip packetDropUndefined:sum(packetBytes) 0
attr interpolationmode none
attr recordingmode sum(packetBytes)
attr source packetDropReasonIsUndefined(packetDropped)
attr title "packet drop: undefined, sum(packetBytes)"
par AdvancedSecurityNetwork.actuator.ipv4.arp typename "\"inet.networklayer.arp.ipv4.Arp\""
par AdvancedSecurityNetwork.actuator.ipv4.arp interfaceTableModule "\"AdvancedSecurityNetwork.actuator.interfaceTable\""
par AdvancedSecurityNetwork.actuator.ipv4.arp routingTableModule "\"AdvancedSecurityNetwork.actuator.ipv4.routingTable\""
par AdvancedSecurityNetwork.actuator.ipv4.arp retryTimeout 1s
attr unit s
par AdvancedSecurityNetwork.actuator.ipv4.arp retryCount 3
par AdvancedSecurityNetwork.actuator.ipv4.arp cacheTimeout 120s
attr unit s
par AdvancedSecurityNetwork.actuator.ipv4.arp proxyArpInterfaces "\"\""
scalar AdvancedSecurityNetwork.actuator.ipv4.arp arpResolutionFailed:count 0
attr recordingmode count
attr title "ARP failed resolutions, count"
scalar AdvancedSecurityNetwork.actuator.ipv4.arp arpResolutionCompleted:count 1
attr recordingmode count
attr title "ARP completed resolutions, count"
scalar AdvancedSecurityNetwork.actuator.ipv4.arp arpResolutionInitiated:count 0
attr recordingmode count
attr title "ARP initiated resolutions, count"
scalar AdvancedSecurityNetwork.actuator.ipv4.arp arpReplySent:count 1
attr recordingmode count
attr source arpReplySent
attr title "ARP replies sent, count"
scalar AdvancedSecurityNetwork.actuator.ipv4.arp arpReplySent:sum(packetBytes) 28
attr recordingmode sum(packetBytes)
attr source arpReplySent
attr title "ARP replies sent, sum(packetBytes)"
scalar AdvancedSecurityNetwork.actuator.ipv4.arp arpRequestSent:count 0
attr recordingmode count
attr source arpRequestSent
attr title "ARP request sent, count"
scalar AdvancedSecurityNetwork.actuator.ipv4.arp arpRequestSent:sum(packetBytes) 0
attr recordingmode sum(packetBytes)
attr source arpRequestSent
attr title "ARP request sent, sum(packetBytes)"
par AdvancedSecurityNetwork.actuator.ipv4.lp typename "\"inet.common.MessageDispatcher\""
par AdvancedSecurityNetwork.actuator.ipv4.lp displayStringTextFormat "\"processed %p pk (%l)\""
par AdvancedSecurityNetwork.actuator.ipv4.lp forwardServiceRegistration true
par AdvancedSecurityNetwork.actuator.ipv4.lp forwardProtocolRegistration true
par AdvancedSecurityNetwork.actuator.ipv4 typename "\"inet.networklayer.ipv4.Ipv4NetworkLayer\""
par AdvancedSecurityNetwork.actuator.ipv4 forwarding false
par AdvancedSecurityNetwork.actuator.ipv4 multicastForwarding false
par AdvancedSecurityNetwork.actuator.ipv4 interfaceTableModule "\"AdvancedSecurityNetwork.actuator.interfaceTable\""
par AdvancedSecurityNetwork.actuator.ipv4 displayStringTextFormat "\"%i\""
par AdvancedSecurityNetwork.actuator.nl typename "\"inet.common.MessageDispatcher\""
par AdvancedSecurityNetwork.actuator.nl displayStringTextFormat "\"processed %p pk (%l)\""
par AdvancedSecurityNetwork.actuator.nl forwardServiceRegistration true
par AdvancedSecurityNetwork.actuator.nl forwardProtocolRegistration true
par AdvancedSecurityNetwork.actuator.udp typename "\"inet.transportlayer.udp.Udp\""
par AdvancedSecurityNetwork.actuator.udp interfaceTableModule "\"AdvancedSecurityNetwork.actuator.interfaceTable\""
par AdvancedSecurityNetwork.actuator.udp icmpModule "\"^.ipv4.icmp\""
par AdvancedSecurityNetwork.actuator.udp icmpv6Module "\"^.ipv6.icmpv6\""
par AdvancedSecurityNetwork.actuator.udp crcMode "\"declared\""
attr enum disabled,declared,computed
par AdvancedSecurityNetwork.actuator.udp defaultMulticastLoop true
scalar AdvancedSecurityNetwork.actuator.udp packetReceived:count 0
attr interpolationmode none
attr recordingmode count
attr source packetReceived
attr title "packets received, count"
scalar AdvancedSecurityNetwork.actuator.udp packetReceived:sum(packetBytes) 0
attr interpolationmode none
attr recordingmode sum(packetBytes)
attr source packetReceived
attr title "packets received, sum(packetBytes)"
scalar AdvancedSecurityNetwork.actuator.udp packetSent:count 0
attr interpolationmode none
attr recordingmode count
attr source packetSent
attr title "packets sent, count"
scalar AdvancedSecurityNetwork.actuator.udp packetSent:sum(packetBytes) 0
attr interpolationmode none
attr recordingmode sum(packetBytes)
attr source packetSent
attr title "packets sent, sum(packetBytes)"
scalar AdvancedSecurityNetwork.actuator.udp passedUpPk:count 0
attr interpolationmode none
attr recordingmode count
attr source packetSentToUpper
attr title "packets passed up, count"
scalar AdvancedSecurityNetwork.actuator.udp droppedPkWrongPort:count 0
attr interpolationmode none
attr recordingmode count
attr source packetDropReasonIsNoPortFound(packetDropped)
attr title "packets dropped (wrong port), count"
scalar AdvancedSecurityNetwork.actuator.udp droppedPkBadChecksum:count 0
attr interpolationmode none
attr recordingmode count
attr source packetDropReasonIsIncorrectlyReceived(packetDropped)
attr title "packets dropped (checksum error), count"
par AdvancedSecurityNetwork.actuator.tcp typename "\"inet.transportlayer.tcp.Tcp\""
par AdvancedSecurityNetwork.actuator.tcp crcMode "\"declared\""
attr enum declared,computed
par AdvancedSecurityNetwork.actuator.tcp advertisedWindow 7504
par AdvancedSecurityNetwork.actuator.tcp delayedAcksEnabled false
par AdvancedSecurityNetwork.actuator.tcp nagleEnabled true
par AdvancedSecurityNetwork.actuator.tcp limitedTransmitEnabled false
par AdvancedSecurityNetwork.actuator.tcp increasedIWEnabled false
par AdvancedSecurityNetwork.actuator.tcp sackSupport false
par AdvancedSecurityNetwork.actuator.tcp windowScalingSupport false
par AdvancedSecurityNetwork.actuator.tcp windowScalingFactor -1
par AdvancedSecurityNetwork.actuator.tcp timestampSupport false
par AdvancedSecurityNetwork.actuator.tcp mss 536
par AdvancedSecurityNetwork.actuator.tcp msl 120s
attr unit s
par AdvancedSecurityNetwork.actuator.tcp tcpAlgorithmClass "\"TcpReno\""
attr enum TcpVegas,TcpWestwood,TcpNewReno,TcpReno,TcpTahoe,TcpNoCongestionControl
par AdvancedSecurityNetwork.actuator.tcp useDataNotification false
par AdvancedSecurityNetwork.actuator.tcp dupthresh 3
par AdvancedSecurityNetwork.actuator.tcp initialSsthresh 4294967295
par AdvancedSecurityNetwork.actuator.tcp stopOperationExtraTime 0s
attr unit s
par AdvancedSecurityNetwork.actuator.tcp stopOperationTimeout 2s
attr unit s
par AdvancedSecurityNetwork.actuator.tcp ecnWillingness false
par AdvancedSecurityNetwork.actuator.tcp dctcpGamma 0.0625
par AdvancedSecurityNetwork.actuator.tn typename "\"inet.common.MessageDispatcher\""
par AdvancedSecurityNetwork.actuator.tn displayStringTextFormat "\"processed %p pk (%l)\""
par AdvancedSecurityNetwork.actuator.tn forwardServiceRegistration true
par AdvancedSecurityNetwork.actuator.tn forwardProtocolRegistration true
par AdvancedSecurityNetwork.actuator.app[0] typename "\"SmartSensorApp\""
par AdvancedSecurityNetwork.actuator.app[0] localPort 6000
par AdvancedSecurityNetwork.actuator.app[0] destPort 0
par AdvancedSecurityNetwork.actuator.app[0] destAddress "\"\""
par AdvancedSecurityNetwork.actuator.app[0] sendInterval 1s
attr unit s
par AdvancedSecurityNetwork.actuator.app[0] cryptoCpuDelay 50ms
attr unit ms
par AdvancedSecurityNetwork.actuator.app[0] senseDelay 5ms
attr unit ms
par AdvancedSecurityNetwork.actuator.app[0] actuateDelay 20ms
attr unit ms
par AdvancedSecurityNetwork.actuator.app[0] packetSize 256B
attr unit B
par AdvancedSecurityNetwork.actuator.app[0] cryptoType "\"RSA\""
par AdvancedSecurityNetwork.actuator.app[0] isActuator true
scalar AdvancedSecurityNetwork.actuator.app[0] NumGenerated 0
scalar AdvancedSecurityNetwork.actuator.app[0] NumSent 0
scalar AdvancedSecurityNetwork.actuator.app[0] NumReceived 0
scalar AdvancedSecurityNetwork.actuator.app[0] NumDropped 0
scalar AdvancedSecurityNetwork.actuator.app[0] NumActuated 0
scalar AdvancedSecurityNetwork.actuator.app[0] NumSecurityVulnerabilities 0
par AdvancedSecurityNetwork.actuator.at typename "\"inet.common.MessageDispatcher\""
par AdvancedSecurityNetwork.actuator.at displayStringTextFormat "\"processed %p pk (%l)\""
par AdvancedSecurityNetwork.actuator.at forwardServiceRegistration true
par AdvancedSecurityNetwork.actuator.at forwardProtocolRegistration true
par AdvancedSecurityNetwork.actuator typename "\"inet.node.inet.WirelessHost\""
par AdvancedSecurityNetwork.actuator hasStatus false
par AdvancedSecurityNetwork.actuator osgModel "\"\""
par AdvancedSecurityNetwork.actuator osgModelColor "\"\""
par AdvancedSecurityNetwork.actuator canvasImage "\"\""
par AdvancedSecurityNetwork.actuator canvasImageColor "\"\""
par AdvancedSecurityNetwork.actuator recordPcap false
par AdvancedSecurityNetwork.actuator numPcapRecorders 0
par AdvancedSecurityNetwork.actuator numLoInterfaces 1
par AdvancedSecurityNetwork.actuator numWlanInterfaces 1
par AdvancedSecurityNetwork.actuator numEthInterfaces 0
par AdvancedSecurityNetwork.actuator numPppInterfaces 0
par AdvancedSecurityNetwork.actuator numTunInterfaces 0
par AdvancedSecurityNetwork.actuator numVirtInterfaces 0
par AdvancedSecurityNetwork.actuator fcsMode "\"declared\""
attr enum declared,computed
par AdvancedSecurityNetwork.actuator hasIpv4 true
par AdvancedSecurityNetwork.actuator hasIpv6 false
par AdvancedSecurityNetwork.actuator hasGn false
par AdvancedSecurityNetwork.actuator forwarding false
par AdvancedSecurityNetwork.actuator multicastForwarding false
par AdvancedSecurityNetwork.actuator hasUdp true
par AdvancedSecurityNetwork.actuator hasTcp true
par AdvancedSecurityNetwork.actuator hasSctp false
par AdvancedSecurityNetwork.actuator numApps 1
par AdvancedSecurityNetwork typename "\"AdvancedSecurityNetwork\""

